CRYSTAL
PRIMVEC
 0.00000000000000 4.00995000000000 4.00995000000000
 4.00995000000000 0.00000000000000 4.00995000000000
 4.00995000000000 4.00995000000000 0.00000000000000
PRIMCOORD
 2 1
 89     0.00000000000000     0.00000000000000     0.00000000000000
 89     2.00497500000000     2.00497500000000     2.00497500000000
