CRYSTAL
PRIMVEC
 0.00000000000000 3.10770000000000 3.10770000000000
 3.10770000000000 0.00000000000000 3.10770000000000
 3.10770000000000 3.10770000000000 0.00000000000000
PRIMCOORD
 2 1
 47     0.00000000000000     0.00000000000000     0.00000000000000
 47     1.55385000000000     1.55385000000000     1.55385000000000
