CRYSTAL
PRIMVEC
 0.00000000000000 3.02170000000000 3.02170000000000
 3.02170000000000 0.00000000000000 3.02170000000000
 3.02170000000000 3.02170000000000 0.00000000000000
PRIMCOORD
 2 1
 13     0.00000000000000     0.00000000000000     0.00000000000000
 13     1.51085000000000     1.51085000000000     1.51085000000000
