CRYSTAL
PRIMVEC
 0.00000000000000 2.67780000000000 2.67780000000000
 2.67780000000000 0.00000000000000 2.67780000000000
 2.67780000000000 2.67780000000000 0.00000000000000
PRIMCOORD
 2 1
 95     0.00000000000000     0.00000000000000     0.00000000000000
 95     1.33890000000000     1.33890000000000     1.33890000000000
