CRYSTAL
PRIMVEC
 0.00000000000000 4.63230000000000 4.63230000000000
 4.63230000000000 0.00000000000000 4.63230000000000
 4.63230000000000 4.63230000000000 0.00000000000000
PRIMCOORD
 2 1
 18     0.00000000000000     0.00000000000000     0.00000000000000
 18     2.31615000000000     2.31615000000000     2.31615000000000
