CRYSTAL
PRIMVEC
 0.00000000000000 3.05685000000000 3.05685000000000
 3.05685000000000 0.00000000000000 3.05685000000000
 3.05685000000000 3.05685000000000 0.00000000000000
PRIMCOORD
 2 1
 33     0.00000000000000     0.00000000000000     0.00000000000000
 33     1.52842500000000     1.52842500000000     1.52842500000000
