CRYSTAL
PRIMVEC
 0.00000000000000 4.06100000000000 4.06100000000000
 4.06100000000000 0.00000000000000 4.06100000000000
 4.06100000000000 4.06100000000000 0.00000000000000
PRIMCOORD
 2 1
 85     0.00000000000000     0.00000000000000     0.00000000000000
 85     2.03050000000000     2.03050000000000     2.03050000000000
