CRYSTAL
PRIMVEC
 0.00000000000000 3.08150000000000 3.08150000000000
 3.08150000000000 0.00000000000000 3.08150000000000
 3.08150000000000 3.08150000000000 0.00000000000000
PRIMCOORD
 2 1
 79     0.00000000000000     0.00000000000000     0.00000000000000
 79     1.54075000000000     1.54075000000000     1.54075000000000
