CRYSTAL
PRIMVEC
 0.00000000000000 2.02555000000000 2.02555000000000
 2.02555000000000 0.00000000000000 2.02555000000000
 2.02555000000000 2.02555000000000 0.00000000000000
PRIMCOORD
 2 1
  5     0.00000000000000     0.00000000000000     0.00000000000000
  5     1.01277500000000     1.01277500000000     1.01277500000000
