CRYSTAL
PRIMVEC
 0.00000000000000 3.84240000000000 3.84240000000000
 3.84240000000000 0.00000000000000 3.84240000000000
 3.84240000000000 3.84240000000000 0.00000000000000
PRIMCOORD
 2 1
 56     0.00000000000000     0.00000000000000     0.00000000000000
 56     1.92120000000000     1.92120000000000     1.92120000000000
