CRYSTAL
PRIMVEC
 0.00000000000000 2.44950000000000 2.44950000000000
 2.44950000000000 0.00000000000000 2.44950000000000
 2.44950000000000 2.44950000000000 0.00000000000000
PRIMCOORD
 2 1
  4     0.00000000000000     0.00000000000000     0.00000000000000
  4     1.22475000000000     1.22475000000000     1.22475000000000
