CRYSTAL
PRIMVEC
 0.00000000000000 3.64945000000000 3.64945000000000
 3.64945000000000 0.00000000000000 3.64945000000000
 3.64945000000000 3.64945000000000 0.00000000000000
PRIMCOORD
 2 1
 83     0.00000000000000     0.00000000000000     0.00000000000000
 83     1.82472500000000     1.82472500000000     1.82472500000000
