CRYSTAL
PRIMVEC
 0.00000000000000 3.50610000000000 3.50610000000000
 3.50610000000000 0.00000000000000 3.50610000000000
 3.50610000000000 3.50610000000000 0.00000000000000
PRIMCOORD
 2 1
 35     0.00000000000000     0.00000000000000     0.00000000000000
 35     1.75305000000000     1.75305000000000     1.75305000000000
