CRYSTAL
PRIMVEC
 0.00000000000000 1.78575000000000 1.78575000000000
 1.78575000000000 0.00000000000000 1.78575000000000
 1.78575000000000 1.78575000000000 0.00000000000000
PRIMCOORD
 2 1
  6     0.00000000000000     0.00000000000000     0.00000000000000
  6     0.89287500000000     0.89287500000000     0.89287500000000
