CRYSTAL
PRIMVEC
 0.00000000000000 4.31115000000000 4.31115000000000
 4.31115000000000 0.00000000000000 4.31115000000000
 4.31115000000000 4.31115000000000 0.00000000000000
PRIMCOORD
 2 1
 20     0.00000000000000     0.00000000000000     0.00000000000000
 20     2.15557500000000     2.15557500000000     2.15557500000000
