CRYSTAL
PRIMVEC
 0.00000000000000 3.33680000000000 3.33680000000000
 3.33680000000000 0.00000000000000 3.33680000000000
 3.33680000000000 3.33680000000000 0.00000000000000
PRIMCOORD
 2 1
 48     0.00000000000000     0.00000000000000     0.00000000000000
 48     1.66840000000000     1.66840000000000     1.66840000000000
