CRYSTAL
PRIMVEC
 0.00000000000000 3.11440000000000 3.11440000000000
 3.11440000000000 0.00000000000000 3.11440000000000
 3.11440000000000 3.11440000000000 0.00000000000000
PRIMCOORD
 2 1
 58     0.00000000000000     0.00000000000000     0.00000000000000
 58     1.55720000000000     1.55720000000000     1.55720000000000
