CRYSTAL
PRIMVEC
 0.00000000000000 3.23225000000000 3.23225000000000
 3.23225000000000 0.00000000000000 3.23225000000000
 3.23225000000000 3.23225000000000 0.00000000000000
PRIMCOORD
 2 1
 17     0.00000000000000     0.00000000000000     0.00000000000000
 17     1.61612500000000     1.61612500000000     1.61612500000000
