CRYSTAL
PRIMVEC
 0.00000000000000 2.66420000000000 2.66420000000000
 2.66420000000000 0.00000000000000 2.66420000000000
 2.66420000000000 2.66420000000000 0.00000000000000
PRIMCOORD
 2 1
 96     0.00000000000000     0.00000000000000     0.00000000000000
 96     1.33210000000000     1.33210000000000     1.33210000000000
