CRYSTAL
PRIMVEC
 0.00000000000000 2.54910000000000 2.54910000000000
 2.54910000000000 0.00000000000000 2.54910000000000
 2.54910000000000 2.54910000000000 0.00000000000000
PRIMCOORD
 2 1
 24     0.00000000000000     0.00000000000000     0.00000000000000
 24     1.27455000000000     1.27455000000000     1.27455000000000
