CRYSTAL
PRIMVEC
 0.00000000000000 5.73975000000000 5.73975000000000
 5.73975000000000 0.00000000000000 5.73975000000000
 5.73975000000000 5.73975000000000 0.00000000000000
PRIMCOORD
 2 1
 55     0.00000000000000     0.00000000000000     0.00000000000000
 55     2.86987500000000     2.86987500000000     2.86987500000000
