CRYSTAL
PRIMVEC
 0.00000000000000 2.67705000000000 2.67705000000000
 2.67705000000000 0.00000000000000 2.67705000000000
 2.67705000000000 2.67705000000000 0.00000000000000
PRIMCOORD
 2 1
 29     0.00000000000000     0.00000000000000     0.00000000000000
 29     1.33852500000000     1.33852500000000     1.33852500000000
