CRYSTAL
PRIMVEC
 0.00000000000000 2.84690000000000 2.84690000000000
 2.84690000000000 0.00000000000000 2.84690000000000
 2.84690000000000 2.84690000000000 0.00000000000000
PRIMCOORD
 2 1
 66     0.00000000000000     0.00000000000000     0.00000000000000
 66     1.42345000000000     1.42345000000000     1.42345000000000
