CRYSTAL
PRIMVEC
 0.00000000000000 4.31540000000000 4.31540000000000
 4.31540000000000 0.00000000000000 4.31540000000000
 4.31540000000000 4.31540000000000 0.00000000000000
PRIMCOORD
 2 1
 68     0.00000000000000     0.00000000000000     0.00000000000000
 68     2.15770000000000     2.15770000000000     2.15770000000000
