CRYSTAL
PRIMVEC
 0.00000000000000 2.74750000000000 2.74750000000000
 2.74750000000000 0.00000000000000 2.74750000000000
 2.74750000000000 2.74750000000000 0.00000000000000
PRIMCOORD
 2 1
 63     0.00000000000000     0.00000000000000     0.00000000000000
 63     1.37375000000000     1.37375000000000     1.37375000000000
