CRYSTAL
PRIMVEC
 0.00000000000000 2.43920000000000 2.43920000000000
 2.43920000000000 0.00000000000000 2.43920000000000
 2.43920000000000 2.43920000000000 0.00000000000000
PRIMCOORD
 2 1
  9     0.00000000000000     0.00000000000000     0.00000000000000
  9     1.21960000000000     1.21960000000000     1.21960000000000
