CRYSTAL
PRIMVEC
 0.00000000000000 2.43735000000000 2.43735000000000
 2.43735000000000 0.00000000000000 2.43735000000000
 2.43735000000000 2.43735000000000 0.00000000000000
PRIMCOORD
 2 1
 26     0.00000000000000     0.00000000000000     0.00000000000000
 26     1.21867500000000     1.21867500000000     1.21867500000000
