CRYSTAL
PRIMVEC
 0.00000000000000 5.77265000000000 5.77265000000000
 5.77265000000000 0.00000000000000 5.77265000000000
 5.77265000000000 5.77265000000000 0.00000000000000
PRIMCOORD
 2 1
 87     0.00000000000000     0.00000000000000     0.00000000000000
 87     2.88632500000000     2.88632500000000     2.88632500000000
