CRYSTAL
PRIMVEC
 0.00000000000000 2.94045000000000 2.94045000000000
 2.94045000000000 0.00000000000000 2.94045000000000
 2.94045000000000 2.94045000000000 0.00000000000000
PRIMCOORD
 2 1
 31     0.00000000000000     0.00000000000000     0.00000000000000
 31     1.47022500000000     1.47022500000000     1.47022500000000
