CRYSTAL
PRIMVEC
 0.00000000000000 2.75930000000000 2.75930000000000
 2.75930000000000 0.00000000000000 2.75930000000000
 2.75930000000000 2.75930000000000 0.00000000000000
PRIMCOORD
 2 1
 64     0.00000000000000     0.00000000000000     0.00000000000000
 64     1.37965000000000     1.37965000000000     1.37965000000000
