CRYSTAL
PRIMVEC
 0.00000000000000 2.88200000000000 2.88200000000000
 2.88200000000000 0.00000000000000 2.88200000000000
 2.88200000000000 2.88200000000000 0.00000000000000
PRIMCOORD
 2 1
 32     0.00000000000000     0.00000000000000     0.00000000000000
 32     1.44100000000000     1.44100000000000     1.44100000000000
