CRYSTAL
PRIMVEC
 0.00000000000000 1.50820000000000 1.50820000000000
 1.50820000000000 0.00000000000000 1.50820000000000
 1.50820000000000 1.50820000000000 0.00000000000000
PRIMCOORD
 2 1
  1     0.00000000000000     0.00000000000000     0.00000000000000
  1     0.75410000000000     0.75410000000000     0.75410000000000
