CRYSTAL
PRIMVEC
 0.00000000000000 3.18005000000000 3.18005000000000
 3.18005000000000 0.00000000000000 3.18005000000000
 3.18005000000000 3.18005000000000 0.00000000000000
PRIMCOORD
 2 1
  2     0.00000000000000     0.00000000000000     0.00000000000000
  2     1.59002500000000     1.59002500000000     1.59002500000000
