CRYSTAL
PRIMVEC
 0.00000000000000 3.27495000000000 3.27495000000000
 3.27495000000000 0.00000000000000 3.27495000000000
 3.27495000000000 3.27495000000000 0.00000000000000
PRIMCOORD
 2 1
 72     0.00000000000000     0.00000000000000     0.00000000000000
 72     1.63747500000000     1.63747500000000     1.63747500000000
