CRYSTAL
PRIMVEC
 0.00000000000000 3.83690000000000 3.83690000000000
 3.83690000000000 0.00000000000000 3.83690000000000
 3.83690000000000 3.83690000000000 0.00000000000000
PRIMCOORD
 2 1
 80     0.00000000000000     0.00000000000000     0.00000000000000
 80     1.91845000000000     1.91845000000000     1.91845000000000
