CRYSTAL
PRIMVEC
 0.00000000000000 3.92720000000000 3.92720000000000
 3.92720000000000 0.00000000000000 3.92720000000000
 3.92720000000000 3.92720000000000 0.00000000000000
PRIMCOORD
 2 1
 53     0.00000000000000     0.00000000000000     0.00000000000000
 53     1.96360000000000     1.96360000000000     1.96360000000000
