CRYSTAL
PRIMVEC
 0.00000000000000 3.36360000000000 3.36360000000000
 3.36360000000000 0.00000000000000 3.36360000000000
 3.36360000000000 3.36360000000000 0.00000000000000
PRIMCOORD
 2 1
 49     0.00000000000000     0.00000000000000     0.00000000000000
 49     1.68180000000000     1.68180000000000     1.68180000000000
