CRYSTAL
PRIMVEC
 0.00000000000000 2.78580000000000 2.78580000000000
 2.78580000000000 0.00000000000000 2.78580000000000
 2.78580000000000 2.78580000000000 0.00000000000000
PRIMCOORD
 2 1
 77     0.00000000000000     0.00000000000000     0.00000000000000
 77     1.39290000000000     1.39290000000000     1.39290000000000
