CRYSTAL
PRIMVEC
 0.00000000000000 4.82565000000000 4.82565000000000
 4.82565000000000 0.00000000000000 4.82565000000000
 4.82565000000000 4.82565000000000 0.00000000000000
PRIMCOORD
 2 1
 19     0.00000000000000     0.00000000000000     0.00000000000000
 19     2.41282500000000     2.41282500000000     2.41282500000000
