CRYSTAL
PRIMVEC
 0.00000000000000 5.01125000000000 5.01125000000000
 5.01125000000000 0.00000000000000 5.01125000000000
 5.01125000000000 5.01125000000000 0.00000000000000
PRIMCOORD
 2 1
 36     0.00000000000000     0.00000000000000     0.00000000000000
 36     2.50562500000000     2.50562500000000     2.50562500000000
