CRYSTAL
PRIMVEC
 0.00000000000000 3.34370000000000 3.34370000000000
 3.34370000000000 0.00000000000000 3.34370000000000
 3.34370000000000 3.34370000000000 0.00000000000000
PRIMCOORD
 2 1
 57     0.00000000000000     0.00000000000000     0.00000000000000
 57     1.67185000000000     1.67185000000000     1.67185000000000
