CRYSTAL
PRIMVEC
 0.00000000000000 2.94970000000000 2.94970000000000
 2.94970000000000 0.00000000000000 2.94970000000000
 2.94970000000000 2.94970000000000 0.00000000000000
PRIMCOORD
 2 1
  3     0.00000000000000     0.00000000000000     0.00000000000000
  3     1.47485000000000     1.47485000000000     1.47485000000000
