CRYSTAL
PRIMVEC
 0.00000000000000 3.69820000000000 3.69820000000000
 3.69820000000000 0.00000000000000 3.69820000000000
 3.69820000000000 3.69820000000000 0.00000000000000
PRIMCOORD
 2 1
 71     0.00000000000000     0.00000000000000     0.00000000000000
 71     1.84910000000000     1.84910000000000     1.84910000000000
