CRYSTAL
PRIMVEC
 0.00000000000000 3.43025000000000 3.43025000000000
 3.43025000000000 0.00000000000000 3.43025000000000
 3.43025000000000 3.43025000000000 0.00000000000000
PRIMCOORD
 2 1
 12     0.00000000000000     0.00000000000000     0.00000000000000
 12     1.71512500000000     1.71512500000000     1.71512500000000
