CRYSTAL
PRIMVEC
 0.00000000000000 2.47650000000000 2.47650000000000
 2.47650000000000 0.00000000000000 2.47650000000000
 2.47650000000000 2.47650000000000 0.00000000000000
PRIMCOORD
 2 1
 25     0.00000000000000     0.00000000000000     0.00000000000000
 25     1.23825000000000     1.23825000000000     1.23825000000000
