CRYSTAL
PRIMVEC
 0.00000000000000 2.84570000000000 2.84570000000000
 2.84570000000000 0.00000000000000 2.84570000000000
 2.84570000000000 2.84570000000000 0.00000000000000
PRIMCOORD
 2 1
 42     0.00000000000000     0.00000000000000     0.00000000000000
 42     1.42285000000000     1.42285000000000     1.42285000000000
