CRYSTAL
PRIMVEC
 0.00000000000000 2.09350000000000 2.09350000000000
 2.09350000000000 0.00000000000000 2.09350000000000
 2.09350000000000 2.09350000000000 0.00000000000000
PRIMCOORD
 2 1
  7     0.00000000000000     0.00000000000000     0.00000000000000
  7     1.04675000000000     1.04675000000000     1.04675000000000
