CRYSTAL
PRIMVEC
 0.00000000000000 3.78665000000000 3.78665000000000
 3.78665000000000 0.00000000000000 3.78665000000000
 3.78665000000000 3.78665000000000 0.00000000000000
PRIMCOORD
 2 1
 11     0.00000000000000     0.00000000000000     0.00000000000000
 11     1.89332500000000     1.89332500000000     1.89332500000000
