CRYSTAL
PRIMVEC
 0.00000000000000 2.95755000000000 2.95755000000000
 2.95755000000000 0.00000000000000 2.95755000000000
 2.95755000000000 2.95755000000000 0.00000000000000
PRIMCOORD
 2 1
 41     0.00000000000000     0.00000000000000     0.00000000000000
 41     1.47877500000000     1.47877500000000     1.47877500000000
