CRYSTAL
PRIMVEC
 0.00000000000000 2.86845000000000 2.86845000000000
 2.86845000000000 0.00000000000000 2.86845000000000
 2.86845000000000 2.86845000000000 0.00000000000000
PRIMCOORD
 2 1
 60     0.00000000000000     0.00000000000000     0.00000000000000
 60     1.43422500000000     1.43422500000000     1.43422500000000
