CRYSTAL
PRIMVEC
 0.00000000000000 3.54255000000000 3.54255000000000
 3.54255000000000 0.00000000000000 3.54255000000000
 3.54255000000000 3.54255000000000 0.00000000000000
PRIMCOORD
 2 1
 10     0.00000000000000     0.00000000000000     0.00000000000000
 10     1.77127500000000     1.77127500000000     1.77127500000000
