CRYSTAL
PRIMVEC
 0.00000000000000 2.54695000000000 2.54695000000000
 2.54695000000000 0.00000000000000 2.54695000000000
 2.54695000000000 2.54695000000000 0.00000000000000
PRIMCOORD
 2 1
 28     0.00000000000000     0.00000000000000     0.00000000000000
 28     1.27347500000000     1.27347500000000     1.27347500000000
