CRYSTAL
PRIMVEC
 0.00000000000000 2.78045000000000 2.78045000000000
 2.78045000000000 0.00000000000000 2.78045000000000
 2.78045000000000 2.78045000000000 0.00000000000000
PRIMCOORD
 2 1
 93     0.00000000000000     0.00000000000000     0.00000000000000
 93     1.39022500000000     1.39022500000000     1.39022500000000
