CRYSTAL
PRIMVEC
 0.00000000000000 3.13715000000000 3.13715000000000
 3.13715000000000 0.00000000000000 3.13715000000000
 3.13715000000000 3.13715000000000 0.00000000000000
PRIMCOORD
 2 1
 91     0.00000000000000     0.00000000000000     0.00000000000000
 91     1.56857500000000     1.56857500000000     1.56857500000000
