CRYSTAL
PRIMVEC
 0.00000000000000 3.52940000000000 3.52940000000000
 3.52940000000000 0.00000000000000 3.52940000000000
 3.52940000000000 3.52940000000000 0.00000000000000
PRIMCOORD
 2 1
 82     0.00000000000000     0.00000000000000     0.00000000000000
 82     1.76470000000000     1.76470000000000     1.76470000000000
