CRYSTAL
PRIMVEC
 0.00000000000000 2.90570000000000 2.90570000000000
 2.90570000000000 0.00000000000000 2.90570000000000
 2.90570000000000 2.90570000000000 0.00000000000000
PRIMCOORD
 2 1
 46     0.00000000000000     0.00000000000000     0.00000000000000
 46     1.45285000000000     1.45285000000000     1.45285000000000
