CRYSTAL
PRIMVEC
 0.00000000000000 2.78955000000000 2.78955000000000
 2.78955000000000 0.00000000000000 2.78955000000000
 2.78955000000000 2.78955000000000 0.00000000000000
PRIMCOORD
 2 1
 61     0.00000000000000     0.00000000000000     0.00000000000000
 61     1.39477500000000     1.39477500000000     1.39477500000000
