CRYSTAL
PRIMVEC
 0.00000000000000 3.74310000000000 3.74310000000000
 3.74310000000000 0.00000000000000 3.74310000000000
 3.74310000000000 3.74310000000000 0.00000000000000
PRIMCOORD
 2 1
 84     0.00000000000000     0.00000000000000     0.00000000000000
 84     1.87155000000000     1.87155000000000     1.87155000000000
