CRYSTAL
PRIMVEC
 0.00000000000000 2.97235000000000 2.97235000000000
 2.97235000000000 0.00000000000000 2.97235000000000
 2.97235000000000 2.97235000000000 0.00000000000000
PRIMCOORD
 2 1
 59     0.00000000000000     0.00000000000000     0.00000000000000
 59     1.48617500000000     1.48617500000000     1.48617500000000
