CRYSTAL
PRIMVEC
 0.00000000000000 2.71420000000000 2.71420000000000
 2.71420000000000 0.00000000000000 2.71420000000000
 2.71420000000000 2.71420000000000 0.00000000000000
PRIMCOORD
 2 1
 94     0.00000000000000     0.00000000000000     0.00000000000000
 94     1.35710000000000     1.35710000000000     1.35710000000000
