CRYSTAL
PRIMVEC
 0.00000000000000 5.53670000000000 5.53670000000000
 5.53670000000000 0.00000000000000 5.53670000000000
 5.53670000000000 5.53670000000000 0.00000000000000
PRIMCOORD
 2 1
 88     0.00000000000000     0.00000000000000     0.00000000000000
 88     2.76835000000000     2.76835000000000     2.76835000000000
