CRYSTAL
PRIMVEC
 0.00000000000000 2.82690000000000 2.82690000000000
 2.82690000000000 0.00000000000000 2.82690000000000
 2.82690000000000 2.82690000000000 0.00000000000000
PRIMCOORD
 2 1
 75     0.00000000000000     0.00000000000000     0.00000000000000
 75     1.41345000000000     1.41345000000000     1.41345000000000
