CRYSTAL
PRIMVEC
 0.00000000000000 2.75765000000000 2.75765000000000
 2.75765000000000 0.00000000000000 2.75765000000000
 2.75765000000000 2.75765000000000 0.00000000000000
PRIMCOORD
 2 1
 45     0.00000000000000     0.00000000000000     0.00000000000000
 45     1.37882500000000     1.37882500000000     1.37882500000000
