CRYSTAL
PRIMVEC
 0.00000000000000 5.62825000000000 5.62825000000000
 5.62825000000000 0.00000000000000 5.62825000000000
 5.62825000000000 5.62825000000000 0.00000000000000
PRIMCOORD
 2 1
 86     0.00000000000000     0.00000000000000     0.00000000000000
 86     2.81412500000000     2.81412500000000     2.81412500000000
