CRYSTAL
PRIMVEC
 0.00000000000000 2.72900000000000 2.72900000000000
 2.72900000000000 0.00000000000000 2.72900000000000
 2.72900000000000 2.72900000000000 0.00000000000000
PRIMCOORD
 2 1
 44     0.00000000000000     0.00000000000000     0.00000000000000
 44     1.36450000000000     1.36450000000000     1.36450000000000
