CRYSTAL
PRIMVEC
 0.00000000000000 2.89680000000000 2.89680000000000
 2.89680000000000 0.00000000000000 2.89680000000000
 2.89680000000000 2.89680000000000 0.00000000000000
PRIMCOORD
 2 1
 16     0.00000000000000     0.00000000000000     0.00000000000000
 16     1.44840000000000     1.44840000000000     1.44840000000000
