CRYSTAL
PRIMVEC
 0.00000000000000 3.49930000000000 3.49930000000000
 3.49930000000000 0.00000000000000 3.49930000000000
 3.49930000000000 3.49930000000000 0.00000000000000
PRIMCOORD
 2 1
 51     0.00000000000000     0.00000000000000     0.00000000000000
 51     1.74965000000000     1.74965000000000     1.74965000000000
