CRYSTAL
PRIMVEC
 0.00000000000000 3.25195000000000 3.25195000000000
 3.25195000000000 0.00000000000000 3.25195000000000
 3.25195000000000 3.25195000000000 0.00000000000000
PRIMCOORD
 2 1
 21     0.00000000000000     0.00000000000000     0.00000000000000
 21     1.62597500000000     1.62597500000000     1.62597500000000
