CRYSTAL
PRIMVEC
 0.00000000000000 3.16620000000000 3.16620000000000
 3.16620000000000 0.00000000000000 3.16620000000000
 3.16620000000000 3.16620000000000 0.00000000000000
PRIMCOORD
 2 1
 34     0.00000000000000     0.00000000000000     0.00000000000000
 34     1.58310000000000     1.58310000000000     1.58310000000000
