CRYSTAL
PRIMVEC
 0.00000000000000 2.73535000000000 2.73535000000000
 2.73535000000000 0.00000000000000 2.73535000000000
 2.73535000000000 2.73535000000000 0.00000000000000
PRIMCOORD
 2 1
 14     0.00000000000000     0.00000000000000     0.00000000000000
 14     1.36767500000000     1.36767500000000     1.36767500000000
