CRYSTAL
PRIMVEC
 0.00000000000000 2.75700000000000 2.75700000000000
 2.75700000000000 0.00000000000000 2.75700000000000
 2.75700000000000 2.75700000000000 0.00000000000000
PRIMCOORD
 2 1
 62     0.00000000000000     0.00000000000000     0.00000000000000
 62     1.37850000000000     1.37850000000000     1.37850000000000
