CRYSTAL
PRIMVEC
 0.00000000000000 3.32785000000000 3.32785000000000
 3.32785000000000 0.00000000000000 3.32785000000000
 3.32785000000000 3.32785000000000 0.00000000000000
PRIMCOORD
 2 1
 50     0.00000000000000     0.00000000000000     0.00000000000000
 50     1.66392500000000     1.66392500000000     1.66392500000000
