CRYSTAL
PRIMVEC
 0.00000000000000 4.82375000000000 4.82375000000000
 4.82375000000000 0.00000000000000 4.82375000000000
 4.82375000000000 4.82375000000000 0.00000000000000
PRIMCOORD
 2 1
 38     0.00000000000000     0.00000000000000     0.00000000000000
 38     2.41187500000000     2.41187500000000     2.41187500000000
