CRYSTAL
PRIMVEC
 0.00000000000000 3.05220000000000 3.05220000000000
 3.05220000000000 0.00000000000000 3.05220000000000
 3.05220000000000 3.05220000000000 0.00000000000000
PRIMCOORD
 2 1
 73     0.00000000000000     0.00000000000000     0.00000000000000
 73     1.52610000000000     1.52610000000000     1.52610000000000
