CRYSTAL
PRIMVEC
 0.00000000000000 2.79185000000000 2.79185000000000
 2.79185000000000 0.00000000000000 2.79185000000000
 2.79185000000000 2.79185000000000 0.00000000000000
PRIMCOORD
 2 1
 65     0.00000000000000     0.00000000000000     0.00000000000000
 65     1.39592500000000     1.39592500000000     1.39592500000000
