CRYSTAL
PRIMVEC
 0.00000000000000 2.77080000000000 2.77080000000000
 2.77080000000000 0.00000000000000 2.77080000000000
 2.77080000000000 2.77080000000000 0.00000000000000
PRIMCOORD
 2 1
 43     0.00000000000000     0.00000000000000     0.00000000000000
 43     1.38540000000000     1.38540000000000     1.38540000000000
