CRYSTAL
PRIMVEC
 0.00000000000000 3.59400000000000 3.59400000000000
 3.59400000000000 0.00000000000000 3.59400000000000
 3.59400000000000 3.59400000000000 0.00000000000000
PRIMCOORD
 2 1
 52     0.00000000000000     0.00000000000000     0.00000000000000
 52     1.79700000000000     1.79700000000000     1.79700000000000
