CRYSTAL
PRIMVEC
 0.00000000000000 3.60395000000000 3.60395000000000
 3.60395000000000 0.00000000000000 3.60395000000000
 3.60395000000000 3.60395000000000 0.00000000000000
PRIMCOORD
 2 1
 90     0.00000000000000     0.00000000000000     0.00000000000000
 90     1.80197500000000     1.80197500000000     1.80197500000000
