CRYSTAL
PRIMVEC
 0.00000000000000 2.84265000000000 2.84265000000000
 2.84265000000000 0.00000000000000 2.84265000000000
 2.84265000000000 2.84265000000000 0.00000000000000
PRIMCOORD
 2 1
 22     0.00000000000000     0.00000000000000     0.00000000000000
 22     1.42132500000000     1.42132500000000     1.42132500000000
