CRYSTAL
PRIMVEC
 0.00000000000000 3.56395000000000 3.56395000000000
 3.56395000000000 0.00000000000000 3.56395000000000
 3.56395000000000 3.56395000000000 0.00000000000000
PRIMCOORD
 2 1
 81     0.00000000000000     0.00000000000000     0.00000000000000
 81     1.78197500000000     1.78197500000000     1.78197500000000
