CRYSTAL
PRIMVEC
 0.00000000000000 4.33830000000000 4.33830000000000
 4.33830000000000 0.00000000000000 4.33830000000000
 4.33830000000000 4.33830000000000 0.00000000000000
PRIMCOORD
 2 1
 69     0.00000000000000     0.00000000000000     0.00000000000000
 69     2.16915000000000     2.16915000000000     2.16915000000000
