CRYSTAL
PRIMVEC
 0.00000000000000 2.91955000000000 2.91955000000000
 2.91955000000000 0.00000000000000 2.91955000000000
 2.91955000000000 2.91955000000000 0.00000000000000
PRIMCOORD
 2 1
 92     0.00000000000000     0.00000000000000     0.00000000000000
 92     1.45977500000000     1.45977500000000     1.45977500000000
