CRYSTAL
PRIMVEC
 0.00000000000000 2.91640000000000 2.91640000000000
 2.91640000000000 0.00000000000000 2.91640000000000
 2.91640000000000 2.91640000000000 0.00000000000000
PRIMCOORD
 2 1
 74     0.00000000000000     0.00000000000000     0.00000000000000
 74     1.45820000000000     1.45820000000000     1.45820000000000
