CRYSTAL
PRIMVEC
 0.00000000000000 3.52705000000000 3.52705000000000
 3.52705000000000 0.00000000000000 3.52705000000000
 3.52705000000000 3.52705000000000 0.00000000000000
PRIMCOORD
 2 1
 39     0.00000000000000     0.00000000000000     0.00000000000000
 39     1.76352500000000     1.76352500000000     1.76352500000000
