CRYSTAL
PRIMVEC
 0.00000000000000 4.34490000000000 4.34490000000000
 4.34490000000000 0.00000000000000 4.34490000000000
 4.34490000000000 4.34490000000000 0.00000000000000
PRIMCOORD
 2 1
 70     0.00000000000000     0.00000000000000     0.00000000000000
 70     2.17245000000000     2.17245000000000     2.17245000000000
