CRYSTAL
PRIMVEC
 0.00000000000000 3.14140000000000 3.14140000000000
 3.14140000000000 0.00000000000000 3.14140000000000
 3.14140000000000 3.14140000000000 0.00000000000000
PRIMCOORD
 2 1
 40     0.00000000000000     0.00000000000000     0.00000000000000
 40     1.57070000000000     1.57070000000000     1.57070000000000
