CRYSTAL
PRIMVEC
 0.00000000000000 4.31478257311476 4.31478257311476
 4.31478257311476 0.00000000000000 4.31478257311476
 4.31478257311476 4.31478257311476 0.00000000000000
PRIMCOORD
 2 1
 68     0.00000000000000     0.00000000000000     0.00000000000000
 68     2.15739128655738     2.15739128655738     2.15739128655738
