CRYSTAL
# Primitive lattice vectors in Angstrom
PRIMVEC
 5.76359724843001 0.00000000000000 0.00000000000000
 -0.00000000000000 5.76359724843001 0.00000000000000
 0.00000000000000 0.00000000000000 5.76359724843001
# Cartesian coordinates in Angstrom.
PRIMCOORD
 10 1
Ac     1.44089931210750     1.44089931210750     1.44089931210750
Ac     4.32269793632251     4.32269793632251     1.44089931210750
Ac     4.32269793632251     1.44089931210750     4.32269793632251
Ac     1.44089931210750     4.32269793632251     4.32269793632251
O     2.88179862421501     0.00000000000000     0.00000000000000
O     0.00000000000000     2.88179862421501     0.00000000000000
O     0.00000000000000     0.00000000000000     2.88179862421501
O     2.88179862421501     2.88179862421501     0.00000000000000
O     2.88179862421501     0.00000000000000     2.88179862421501
O     0.00000000000000     2.88179862421501     2.88179862421501