CRYSTAL
# Primitive lattice vectors in Angstrom
PRIMVEC
 5.76627626744273 0.00000000000000 0.00000000000000
 -0.00000000000000 5.76627626744273 0.00000000000000
 0.00000000000000 0.00000000000000 5.76627626744273
# Cartesian coordinates in Angstrom.
PRIMCOORD
 14 1
Ac     0.00000000000000     0.00000000000000     0.00000000000000
Ac     2.88313813372137     2.88313813372137     0.00000000000000
Ac     2.88313813372137     0.00000000000000     2.88313813372137
Ac     0.00000000000000     2.88313813372137     2.88313813372137
O     2.88313813372137     0.00000000000000     0.00000000000000
O     0.00000000000000     2.88313813372137     0.00000000000000
O     0.00000000000000     0.00000000000000     2.88313813372137
O     2.88313813372137     2.88313813372137     2.88313813372137
O     4.32470720058205     4.32470720058205     1.44156906686068
O     4.32470720058205     1.44156906686068     4.32470720058205
O     1.44156906686068     4.32470720058205     4.32470720058205
O     4.32470720058205     1.44156906686068     1.44156906686068
O     1.44156906686068     4.32470720058205     1.44156906686068
O     1.44156906686068     1.44156906686068     4.32470720058205