CRYSTAL
# Primitive lattice vectors in Angstrom
PRIMVEC
 4.07242325078243 0.00000000000000 2.35121466009333
 1.35747441692747 3.83951746198669 2.35121466009333
 0.00000000000000 0.00000000000000 4.70242932018666
# Cartesian coordinates in Angstrom.
PRIMCOORD
 3 1
Ac     1.35747441692747     0.95987936549667     2.35121466009333
Ac     4.07242325078243     2.87963809649002     7.05364398027999
O     0.00000000000000     0.00000000000000     0.00000000000000