CRYSTAL
# Primitive lattice vectors in Angstrom
PRIMVEC
 3.22334225491022 0.00000000000000 1.86099751856271
 1.07444741830341 3.03899622204287 1.86099751856271
 0.00000000000000 0.00000000000000 3.72199503712541
# Cartesian coordinates in Angstrom.
PRIMCOORD
 2 1
Ac     0.00000000000000     0.00000000000000     0.00000000000000
O     2.14889483660681     1.51949811102143     3.72199503712541