CRYSTAL
# Primitive lattice vectors in Angstrom
PRIMVEC
 4.34392841260638 0.00000000000000 0.00000000000000
 -0.00000000000000 4.34392841260638 0.00000000000000
 0.00000000000000 0.00000000000000 4.34392841260638
# Cartesian coordinates in Angstrom.
PRIMCOORD
 4 1
Ac     0.00000000000000     0.00000000000000     0.00000000000000
O     2.17196420630318     0.00000000000000     0.00000000000000
O     0.00000000000000     2.17196420630318     0.00000000000000
O     0.00000000000000     0.00000000000000     2.17196420630318