CRYSTAL
# Primitive lattice vectors in Angstrom
PRIMVEC
 3.56441614110741 0.00000000000000 2.05791661857221
 1.18813871370247 3.36056376579712 2.05791661857221
 0.00000000000000 0.00000000000000 4.11583323714442
# Cartesian coordinates in Angstrom.
PRIMCOORD
 3 1
Ac     0.00000000000000     0.00000000000000     0.00000000000000
O     1.18813871370247     0.84014094144928     2.05791661857221
O     3.56441614110741     2.52042282434784     6.17374985571664