CRYSTAL
# Primitive lattice vectors in Angstrom
PRIMVEC
 2.77409896905724 0.00000000000000 1.60162678654386
 0.92469965635241 2.61544559027064 1.60162678654386
 0.00000000000000 0.00000000000000 3.20325357308771
# Cartesian coordinates in Angstrom.
PRIMCOORD
 2 1
Ag     0.00000000000000     0.00000000000000     0.00000000000000
O     1.84939931270483     1.30772279513532     3.20325357308771