CRYSTAL
# Primitive lattice vectors in Angstrom
PRIMVEC
 3.90386999491028 0.00000000000000 0.00000000000000
 -0.00000000000000 3.90386999491028 0.00000000000000
 0.00000000000000 0.00000000000000 3.90386999491028
# Cartesian coordinates in Angstrom.
PRIMCOORD
 4 1
Ag     0.00000000000000     0.00000000000000     0.00000000000000
O     1.95193499745513     0.00000000000000     0.00000000000000
O     0.00000000000000     1.95193499745513     0.00000000000000
O     0.00000000000000     0.00000000000000     1.95193499745513