CRYSTAL
# Primitive lattice vectors in Angstrom
PRIMVEC
 5.13803306214698 0.00000000000000 0.00000000000000
 -0.00000000000000 5.13803306214698 0.00000000000000
 0.00000000000000 0.00000000000000 5.13803306214698
# Cartesian coordinates in Angstrom.
PRIMCOORD
 14 1
Ag     0.00000000000000     0.00000000000000     0.00000000000000
Ag     2.56901653107349     2.56901653107349     0.00000000000000
Ag     2.56901653107349     0.00000000000000     2.56901653107349
Ag     0.00000000000000     2.56901653107349     2.56901653107349
O     2.56901653107349     0.00000000000000     0.00000000000000
O     0.00000000000000     2.56901653107349     0.00000000000000
O     0.00000000000000     0.00000000000000     2.56901653107349
O     2.56901653107349     2.56901653107349     2.56901653107349
O     3.85352479661023     3.85352479661023     1.28450826553674
O     3.85352479661023     1.28450826553674     3.85352479661023
O     1.28450826553674     3.85352479661023     3.85352479661023
O     3.85352479661023     1.28450826553674     1.28450826553674
O     1.28450826553674     3.85352479661023     1.28450826553674
O     1.28450826553674     1.28450826553674     3.85352479661023