CRYSTAL
# Primitive lattice vectors in Angstrom
PRIMVEC
 3.07048519388548 0.00000000000000 1.77274545323254
 1.02349506462849 2.89488120283908 1.77274545323254
 0.00000000000000 0.00000000000000 3.54549090646508
# Cartesian coordinates in Angstrom.
PRIMCOORD
 3 1
Ag     0.00000000000000     0.00000000000000     0.00000000000000
O     1.02349506462849     0.72372030070977     1.77274545323254
O     3.07048519388548     2.17116090212931     5.31823635969762