CRYSTAL
# Primitive lattice vectors in Angstrom
PRIMVEC
 3.41236125056153 0.00000000000000 1.97012768658395
 1.13745375018717 3.21720504017369 1.97012768658395
 0.00000000000000 0.00000000000000 3.94025537316790
# Cartesian coordinates in Angstrom.
PRIMCOORD
 3 1
Ag     1.13745375018717     0.80430126004342     1.97012768658395
Ag     3.41236125056153     2.41290378013027     5.91038305975185
O     0.00000000000000     0.00000000000000     0.00000000000000