CRYSTAL
# Primitive lattice vectors in Angstrom
PRIMVEC
 4.93718586730098 0.00000000000000 0.00000000000000
 -0.00000000000000 4.93718586730098 0.00000000000000
 0.00000000000000 0.00000000000000 4.93718586730098
# Cartesian coordinates in Angstrom.
PRIMCOORD
 10 1
Ag     1.23429646682524     1.23429646682524     1.23429646682524
Ag     3.70288940047573     3.70288940047573     1.23429646682524
Ag     3.70288940047573     1.23429646682524     3.70288940047573
Ag     1.23429646682524     3.70288940047573     3.70288940047573
O     2.46859293365049     0.00000000000000     0.00000000000000
O     0.00000000000000     2.46859293365049     0.00000000000000
O     0.00000000000000     0.00000000000000     2.46859293365049
O     2.46859293365049     2.46859293365049     0.00000000000000
O     2.46859293365049     0.00000000000000     2.46859293365049
O     0.00000000000000     2.46859293365049     2.46859293365049