CRYSTAL
# Primitive lattice vectors in Angstrom
PRIMVEC
 3.41440064348857 0.00000000000000 1.97130513063936
 1.13813354782952 3.21912779826464 1.97130513063936
 0.00000000000000 0.00000000000000 3.94261026127872
# Cartesian coordinates in Angstrom.
PRIMCOORD
 3 1
Al     1.13813354782952     0.80478194956616     1.97130513063936
Al     3.41440064348857     2.41434584869848     5.91391539191808
O     0.00000000000000     0.00000000000000     0.00000000000000