CRYSTAL
# Primitive lattice vectors in Angstrom
PRIMVEC
 4.53928230660198 0.00000000000000 0.00000000000000
 -0.00000000000000 4.53928230660198 0.00000000000000
 0.00000000000000 0.00000000000000 4.53928230660198
# Cartesian coordinates in Angstrom.
PRIMCOORD
 10 1
Al     1.13482057665049     1.13482057665049     1.13482057665049
Al     3.40446172995149     3.40446172995149     1.13482057665049
Al     3.40446172995149     1.13482057665049     3.40446172995149
Al     1.13482057665049     3.40446172995149     3.40446172995149
O     2.26964115330099     0.00000000000000     0.00000000000000
O     0.00000000000000     2.26964115330099     0.00000000000000
O     0.00000000000000     0.00000000000000     2.26964115330099
O     2.26964115330099     2.26964115330099     0.00000000000000
O     2.26964115330099     0.00000000000000     2.26964115330099
O     0.00000000000000     2.26964115330099     2.26964115330099