CRYSTAL
# Primitive lattice vectors in Angstrom
PRIMVEC
 4.90727922318372 0.00000000000000 0.00000000000000
 -0.00000000000000 4.90727922318372 0.00000000000000
 0.00000000000000 0.00000000000000 4.90727922318372
# Cartesian coordinates in Angstrom.
PRIMCOORD
 14 1
Al     0.00000000000000     0.00000000000000     0.00000000000000
Al     2.45363961159186     2.45363961159186     0.00000000000000
Al     2.45363961159186     0.00000000000000     2.45363961159186
Al     0.00000000000000     2.45363961159186     2.45363961159186
O     2.45363961159186     0.00000000000000     0.00000000000000
O     0.00000000000000     2.45363961159186     0.00000000000000
O     0.00000000000000     0.00000000000000     2.45363961159186
O     2.45363961159186     2.45363961159186     2.45363961159186
O     3.68045941738779     3.68045941738779     1.22681980579593
O     3.68045941738779     1.22681980579593     3.68045941738779
O     1.22681980579593     3.68045941738779     3.68045941738779
O     3.68045941738779     1.22681980579593     1.22681980579593
O     1.22681980579593     3.68045941738779     1.22681980579593
O     1.22681980579593     1.22681980579593     3.68045941738779