CRYSTAL
# Primitive lattice vectors in Angstrom
PRIMVEC
 2.69537210991854 0.00000000000000 1.55617381322768
 0.89845736997285 2.54122119565932 1.55617381322768
 0.00000000000000 0.00000000000000 3.11234762645535
# Cartesian coordinates in Angstrom.
PRIMCOORD
 2 1
Al     0.00000000000000     0.00000000000000     0.00000000000000
O     1.79691473994569     1.27061059782966     3.11234762645535