CRYSTAL
# Primitive lattice vectors in Angstrom
PRIMVEC
 3.59774065229935 0.00000000000000 0.00000000000000
 -0.00000000000000 3.59774065229935 0.00000000000000
 0.00000000000000 0.00000000000000 3.59774065229935
# Cartesian coordinates in Angstrom.
PRIMCOORD
 4 1
Al     0.00000000000000     0.00000000000000     0.00000000000000
O     1.79887032614967     0.00000000000000     0.00000000000000
O     0.00000000000000     1.79887032614967     0.00000000000000
O     0.00000000000000     0.00000000000000     1.79887032614967