CRYSTAL
# Primitive lattice vectors in Angstrom
PRIMVEC
 2.83772732269199 0.00000000000000 1.63836263364298
 0.94590910756399 2.67543497737847 1.63836263364298
 0.00000000000000 0.00000000000000 3.27672526728595
# Cartesian coordinates in Angstrom.
PRIMCOORD
 3 1
Al     0.00000000000000     0.00000000000000     0.00000000000000
O     0.94590910756399     0.66885874434462     1.63836263364298
O     2.83772732269199     2.00657623303386     4.91508790092894