CRYSTAL
# Primitive lattice vectors in Angstrom
PRIMVEC
 3.37040506629961 0.00000000000000 1.94590427230616
 1.12346835543320 3.17764837030127 1.94590427230616
 0.00000000000000 0.00000000000000 3.89180854461232
# Cartesian coordinates in Angstrom.
PRIMCOORD
 3 1
Am     1.12346835543320     0.79441209257531     1.94590427230616
Am     3.37040506629961     2.38323627772595     5.83771281691848
O     0.00000000000000     0.00000000000000     0.00000000000000