CRYSTAL
# Primitive lattice vectors in Angstrom
PRIMVEC
 2.83528815074965 0.00000000000000 1.63695437706546
 0.94509605024988 2.67313530401725 1.63695437706546
 0.00000000000000 0.00000000000000 3.27390875413092
# Cartesian coordinates in Angstrom.
PRIMCOORD
 2 1
Am     0.00000000000000     0.00000000000000     0.00000000000000
O     1.89019210049976     1.33656765200862     3.27390875413092