CRYSTAL
# Primitive lattice vectors in Angstrom
PRIMVEC
 5.11777979843934 0.00000000000000 0.00000000000000
 -0.00000000000000 5.11777979843934 0.00000000000000
 0.00000000000000 0.00000000000000 5.11777979843934
# Cartesian coordinates in Angstrom.
PRIMCOORD
 10 1
Am     1.27944494960983     1.27944494960983     1.27944494960983
Am     3.83833484882951     3.83833484882951     1.27944494960983
Am     3.83833484882951     1.27944494960983     3.83833484882951
Am     1.27944494960983     3.83833484882951     3.83833484882951
O     2.55888989921967     0.00000000000000     0.00000000000000
O     0.00000000000000     2.55888989921967     0.00000000000000
O     0.00000000000000     0.00000000000000     2.55888989921967
O     2.55888989921967     2.55888989921967     0.00000000000000
O     2.55888989921967     0.00000000000000     2.55888989921967
O     0.00000000000000     2.55888989921967     2.55888989921967