CRYSTAL
# Primitive lattice vectors in Angstrom
PRIMVEC
 4.00263018760709 0.00000000000000 0.00000000000000
 -0.00000000000000 4.00263018760709 0.00000000000000
 0.00000000000000 0.00000000000000 4.00263018760709
# Cartesian coordinates in Angstrom.
PRIMCOORD
 4 1
Am     0.00000000000000     0.00000000000000     0.00000000000000
O     2.00131509380354     0.00000000000000     0.00000000000000
O     0.00000000000000     2.00131509380354     0.00000000000000
O     0.00000000000000     0.00000000000000     2.00131509380354