CRYSTAL
# Primitive lattice vectors in Angstrom
PRIMVEC
 5.16221258479307 0.00000000000000 0.00000000000000
 -0.00000000000000 5.16221258479307 0.00000000000000
 0.00000000000000 0.00000000000000 5.16221258479307
# Cartesian coordinates in Angstrom.
PRIMCOORD
 14 1
Am     0.00000000000000     0.00000000000000     0.00000000000000
Am     2.58110629239653     2.58110629239653     0.00000000000000
Am     2.58110629239653     0.00000000000000     2.58110629239653
Am     0.00000000000000     2.58110629239653     2.58110629239653
O     2.58110629239653     0.00000000000000     0.00000000000000
O     0.00000000000000     2.58110629239653     0.00000000000000
O     0.00000000000000     0.00000000000000     2.58110629239653
O     2.58110629239653     2.58110629239653     2.58110629239653
O     3.87165943859480     3.87165943859480     1.29055314619827
O     3.87165943859480     1.29055314619827     3.87165943859480
O     1.29055314619827     3.87165943859480     3.87165943859480
O     3.87165943859480     1.29055314619827     1.29055314619827
O     1.29055314619827     3.87165943859480     1.29055314619827
O     1.29055314619827     1.29055314619827     3.87165943859480