CRYSTAL
# Primitive lattice vectors in Angstrom
PRIMVEC
 3.16283162909685 0.00000000000000 1.82606169246053
 1.05427720969895 2.98194625691424 1.82606169246053
 0.00000000000000 0.00000000000000 3.65212338492106
# Cartesian coordinates in Angstrom.
PRIMCOORD
 3 1
Am     0.00000000000000     0.00000000000000     0.00000000000000
O     1.05427720969895     0.74548656422856     1.82606169246053
O     3.16283162909685     2.23645969268568     5.47818507738159