CRYSTAL
# Primitive lattice vectors in Angstrom
PRIMVEC
 3.85925331946735 0.00000000000000 0.00000000000000
 -0.00000000000000 3.85925331946735 0.00000000000000
 0.00000000000000 0.00000000000000 3.85925331946735
# Cartesian coordinates in Angstrom.
PRIMCOORD
 4 1
Ar     0.00000000000000     0.00000000000000     0.00000000000000
O     1.92962665973367     0.00000000000000     0.00000000000000
O     0.00000000000000     1.92962665973367     0.00000000000000
O     0.00000000000000     0.00000000000000     1.92962665973367