CRYSTAL
# Primitive lattice vectors in Angstrom
PRIMVEC
 3.02809747008906 0.00000000000000 1.74827288948834
 1.00936582336302 2.85491767359174 1.74827288948834
 0.00000000000000 0.00000000000000 3.49654577897668
# Cartesian coordinates in Angstrom.
PRIMCOORD
 2 1
Ar     0.00000000000000     0.00000000000000     0.00000000000000
O     2.01873164672604     1.42745883679586     3.49654577897668