CRYSTAL
# Primitive lattice vectors in Angstrom
PRIMVEC
 5.39582557655340 0.00000000000000 0.00000000000000
 -0.00000000000000 5.39582557655340 0.00000000000000
 0.00000000000000 0.00000000000000 5.39582557655340
# Cartesian coordinates in Angstrom.
PRIMCOORD
 14 1
Ar     0.00000000000000     0.00000000000000     0.00000000000000
Ar     2.69791278827670     2.69791278827670     0.00000000000000
Ar     2.69791278827670     0.00000000000000     2.69791278827670
Ar     0.00000000000000     2.69791278827670     2.69791278827670
O     2.69791278827670     0.00000000000000     0.00000000000000
O     0.00000000000000     2.69791278827670     0.00000000000000
O     0.00000000000000     0.00000000000000     2.69791278827670
O     2.69791278827670     2.69791278827670     2.69791278827670
O     4.04686918241505     4.04686918241505     1.34895639413835
O     4.04686918241505     1.34895639413835     4.04686918241505
O     1.34895639413835     4.04686918241505     4.04686918241505
O     4.04686918241505     1.34895639413835     1.34895639413835
O     1.34895639413835     4.04686918241505     1.34895639413835
O     1.34895639413835     1.34895639413835     4.04686918241505