CRYSTAL
# Primitive lattice vectors in Angstrom
PRIMVEC
 4.00157762986451 0.00000000000000 2.31031192178546
 1.33385920995483 3.77272357002879 2.31031192178546
 0.00000000000000 0.00000000000000 4.62062384357093
# Cartesian coordinates in Angstrom.
PRIMCOORD
 3 1
Ar     1.33385920995483     0.94318089250719     2.31031192178546
Ar     4.00157762986451     2.82954267752159     6.93093576535639
O     0.00000000000000     0.00000000000000     0.00000000000000