CRYSTAL
# Primitive lattice vectors in Angstrom
PRIMVEC
 5.46003858794492 0.00000000000000 0.00000000000000
 -0.00000000000000 5.46003858794492 0.00000000000000
 0.00000000000000 0.00000000000000 5.46003858794492
# Cartesian coordinates in Angstrom.
PRIMCOORD
 10 1
Ar     1.36500964698623     1.36500964698623     1.36500964698623
Ar     4.09502894095869     4.09502894095869     1.36500964698623
Ar     4.09502894095869     1.36500964698623     4.09502894095869
Ar     1.36500964698623     4.09502894095869     4.09502894095869
O     2.73001929397246     0.00000000000000     0.00000000000000
O     0.00000000000000     2.73001929397246     0.00000000000000
O     0.00000000000000     0.00000000000000     2.73001929397246
O     2.73001929397246     2.73001929397246     0.00000000000000
O     2.73001929397246     0.00000000000000     2.73001929397246
O     0.00000000000000     2.73001929397246     2.73001929397246