CRYSTAL
# Primitive lattice vectors in Angstrom
PRIMVEC
 3.33137297562137 0.00000000000000 1.92336908424604
 1.11045765854045 3.14084856229797 1.92336908424604
 0.00000000000000 0.00000000000000 3.84673816849208
# Cartesian coordinates in Angstrom.
PRIMCOORD
 3 1
Ar     0.00000000000000     0.00000000000000     0.00000000000000
O     1.11045765854045     0.78521214057449     1.92336908424604
O     3.33137297562137     2.35563642172348     5.77010725273813