CRYSTAL
# Primitive lattice vectors in Angstrom
PRIMVEC
 2.86401145291942 0.00000000000000 1.65353778330520
 0.95467048430647 2.70021589300701 1.65353778330520
 0.00000000000000 0.00000000000000 3.30707556661040
# Cartesian coordinates in Angstrom.
PRIMCOORD
 2 1
As     0.00000000000000     0.00000000000000     0.00000000000000
O     1.90934096861295     1.35010794650350     3.30707556661040