CRYSTAL
# Primitive lattice vectors in Angstrom
PRIMVEC
 4.96179495485370 0.00000000000000 0.00000000000000
 -0.00000000000000 4.96179495485370 0.00000000000000
 0.00000000000000 0.00000000000000 4.96179495485370
# Cartesian coordinates in Angstrom.
PRIMCOORD
 10 1
As     1.24044873871342     1.24044873871342     1.24044873871342
As     3.72134621614028     3.72134621614028     1.24044873871342
As     3.72134621614028     1.24044873871342     3.72134621614028
As     1.24044873871342     3.72134621614028     3.72134621614028
O     2.48089747742686     0.00000000000000     0.00000000000000
O     0.00000000000000     2.48089747742686     0.00000000000000
O     0.00000000000000     0.00000000000000     2.48089747742686
O     2.48089747742686     2.48089747742686     0.00000000000000
O     2.48089747742686     0.00000000000000     2.48089747742686
O     0.00000000000000     2.48089747742686     2.48089747742686