CRYSTAL
# Primitive lattice vectors in Angstrom
PRIMVEC
 5.10040475567115 0.00000000000000 0.00000000000000
 -0.00000000000000 5.10040475567115 0.00000000000000
 0.00000000000000 0.00000000000000 5.10040475567115
# Cartesian coordinates in Angstrom.
PRIMCOORD
 14 1
As     0.00000000000000     0.00000000000000     0.00000000000000
As     2.55020237783558     2.55020237783558     0.00000000000000
As     2.55020237783558     0.00000000000000     2.55020237783558
As     0.00000000000000     2.55020237783558     2.55020237783558
O     2.55020237783558     0.00000000000000     0.00000000000000
O     0.00000000000000     2.55020237783558     0.00000000000000
O     0.00000000000000     0.00000000000000     2.55020237783558
O     2.55020237783558     2.55020237783558     2.55020237783558
O     3.82530356675337     3.82530356675337     1.27510118891779
O     3.82530356675337     1.27510118891779     3.82530356675337
O     1.27510118891779     3.82530356675337     3.82530356675337
O     3.82530356675337     1.27510118891779     1.27510118891779
O     1.27510118891779     3.82530356675337     1.27510118891779
O     1.27510118891779     1.27510118891779     3.82530356675337