CRYSTAL
# Primitive lattice vectors in Angstrom
PRIMVEC
 3.54481361838745 0.00000000000000 0.00000000000000
 -0.00000000000000 3.54481361838745 0.00000000000000
 0.00000000000000 0.00000000000000 3.54481361838745
# Cartesian coordinates in Angstrom.
PRIMCOORD
 4 1
As     0.00000000000000     0.00000000000000     0.00000000000000
O     1.77240680919372     0.00000000000000     0.00000000000000
O     0.00000000000000     1.77240680919372     0.00000000000000
O     0.00000000000000     0.00000000000000     1.77240680919372