CRYSTAL
# Primitive lattice vectors in Angstrom
PRIMVEC
 3.00235194954985 0.00000000000000 1.73340870627460
 1.00078398318328 2.83064456404713 1.73340870627460
 0.00000000000000 0.00000000000000 3.46681741254920
# Cartesian coordinates in Angstrom.
PRIMCOORD
 3 1
As     0.00000000000000     0.00000000000000     0.00000000000000
O     1.00078398318328     0.70766114101178     1.73340870627460
O     3.00235194954985     2.12298342303535     5.20022611882381