CRYSTAL
# Primitive lattice vectors in Angstrom
PRIMVEC
 3.44460397276553 0.00000000000000 1.98874303092783
 1.14820132425517 3.24760377019284 1.98874303092783
 0.00000000000000 0.00000000000000 3.97748606185567
# Cartesian coordinates in Angstrom.
PRIMCOORD
 3 1
As     1.14820132425517     0.81190094254821     1.98874303092783
As     3.44460397276553     2.43570282764463     5.96622909278350
O     0.00000000000000     0.00000000000000     0.00000000000000