CRYSTAL
# Primitive lattice vectors in Angstrom
PRIMVEC
 4.06228146533734 0.00000000000000 0.00000000000000
 -0.00000000000000 4.06228146533734 0.00000000000000
 0.00000000000000 0.00000000000000 4.06228146533734
# Cartesian coordinates in Angstrom.
PRIMCOORD
 4 1
At     0.00000000000000     0.00000000000000     0.00000000000000
O     2.03114073266866     0.00000000000000     0.00000000000000
O     0.00000000000000     2.03114073266866     0.00000000000000
O     0.00000000000000     0.00000000000000     2.03114073266866