CRYSTAL
# Primitive lattice vectors in Angstrom
PRIMVEC
 3.35322082534994 0.00000000000000 1.93598294616804
 1.11774027511664 3.16144691256119 1.93598294616804
 0.00000000000000 0.00000000000000 3.87196589233609
# Cartesian coordinates in Angstrom.
PRIMCOORD
 3 1
At     0.00000000000000     0.00000000000000     0.00000000000000
O     1.11774027511664     0.79036172814030     1.93598294616804
O     3.35322082534994     2.37108518442089     5.80794883850414