CRYSTAL
# Primitive lattice vectors in Angstrom
PRIMVEC
 3.26035139433033 0.00000000000000 1.88236475516939
 1.08678379811011 3.07388877330932 1.88236475516939
 0.00000000000000 0.00000000000000 3.76472951033877
# Cartesian coordinates in Angstrom.
PRIMCOORD
 2 1
At     0.00000000000000     0.00000000000000     0.00000000000000
O     2.17356759622022     1.53694438665466     3.76472951033877