CRYSTAL
# Primitive lattice vectors in Angstrom
PRIMVEC
 4.01574684009047 0.00000000000000 2.31849251912362
 1.33858228003015 3.78608242954189 2.31849251912362
 0.00000000000000 0.00000000000000 4.63698503824725
# Cartesian coordinates in Angstrom.
PRIMCOORD
 3 1
At     1.33858228003015     0.94652060738547     2.31849251912362
At     4.01574684009047     2.83956182215642     6.95547755737087
O     0.00000000000000     0.00000000000000     0.00000000000000