CRYSTAL
# Primitive lattice vectors in Angstrom
PRIMVEC
 5.48806260079165 0.00000000000000 0.00000000000000
 -0.00000000000000 5.48806260079165 0.00000000000000
 0.00000000000000 0.00000000000000 5.48806260079165
# Cartesian coordinates in Angstrom.
PRIMCOORD
 10 1
At     1.37201565019791     1.37201565019791     1.37201565019791
At     4.11604695059374     4.11604695059374     1.37201565019791
At     4.11604695059374     1.37201565019791     4.11604695059374
At     1.37201565019791     4.11604695059374     4.11604695059374
O     2.74403130039583     0.00000000000000     0.00000000000000
O     0.00000000000000     2.74403130039583     0.00000000000000
O     0.00000000000000     0.00000000000000     2.74403130039583
O     2.74403130039583     2.74403130039583     0.00000000000000
O     2.74403130039583     0.00000000000000     2.74403130039583
O     0.00000000000000     2.74403130039583     2.74403130039583