CRYSTAL
# Primitive lattice vectors in Angstrom
PRIMVEC
 5.39961959989983 0.00000000000000 0.00000000000000
 -0.00000000000000 5.39961959989983 0.00000000000000
 0.00000000000000 0.00000000000000 5.39961959989983
# Cartesian coordinates in Angstrom.
PRIMCOORD
 14 1
At     0.00000000000000     0.00000000000000     0.00000000000000
At     2.69980979994992     2.69980979994992     0.00000000000000
At     2.69980979994992     0.00000000000000     2.69980979994992
At     0.00000000000000     2.69980979994992     2.69980979994992
O     2.69980979994992     0.00000000000000     0.00000000000000
O     0.00000000000000     2.69980979994992     0.00000000000000
O     0.00000000000000     0.00000000000000     2.69980979994992
O     2.69980979994992     2.69980979994992     2.69980979994992
O     4.04971469992487     4.04971469992487     1.34990489997496
O     4.04971469992487     1.34990489997496     4.04971469992487
O     1.34990489997496     4.04971469992487     4.04971469992487
O     4.04971469992487     1.34990489997496     1.34990489997496
O     1.34990489997496     4.04971469992487     1.34990489997496
O     1.34990489997496     1.34990489997496     4.04971469992487