CRYSTAL
# Primitive lattice vectors in Angstrom
PRIMVEC
 5.16146275712381 0.00000000000000 0.00000000000000
 -0.00000000000000 5.16146275712381 0.00000000000000
 0.00000000000000 0.00000000000000 5.16146275712381
# Cartesian coordinates in Angstrom.
PRIMCOORD
 14 1
Au     0.00000000000000     0.00000000000000     0.00000000000000
Au     2.58073137856191     2.58073137856191     0.00000000000000
Au     2.58073137856191     0.00000000000000     2.58073137856191
Au     0.00000000000000     2.58073137856191     2.58073137856191
O     2.58073137856191     0.00000000000000     0.00000000000000
O     0.00000000000000     2.58073137856191     0.00000000000000
O     0.00000000000000     0.00000000000000     2.58073137856191
O     2.58073137856191     2.58073137856191     2.58073137856191
O     3.87109706784286     3.87109706784286     1.29036568928095
O     3.87109706784286     1.29036568928095     3.87109706784286
O     1.29036568928095     3.87109706784286     3.87109706784286
O     3.87109706784286     1.29036568928095     1.29036568928095
O     1.29036568928095     3.87109706784286     1.29036568928095
O     1.29036568928095     1.29036568928095     3.87109706784286