CRYSTAL
# Primitive lattice vectors in Angstrom
PRIMVEC
 3.45451166325633 0.00000000000000 1.99446323869975
 1.15150388775211 3.25694483036876 1.99446323869975
 0.00000000000000 0.00000000000000 3.98892647739949
# Cartesian coordinates in Angstrom.
PRIMCOORD
 3 1
Au     1.15150388775211     0.81423620759219     1.99446323869975
Au     3.45451166325633     2.44270862277657     5.98338971609924
O     0.00000000000000     0.00000000000000     0.00000000000000