CRYSTAL
# Primitive lattice vectors in Angstrom
PRIMVEC
 2.83286447877820 0.00000000000000 1.63555506940032
 0.94428815959273 2.67085024416875 1.63555506940032
 0.00000000000000 0.00000000000000 3.27111013880064
# Cartesian coordinates in Angstrom.
PRIMCOORD
 2 1
Au     0.00000000000000     0.00000000000000     0.00000000000000
O     1.88857631918547     1.33542512208437     3.27111013880064