CRYSTAL
# Primitive lattice vectors in Angstrom
PRIMVEC
 3.10277822689618 0.00000000000000 1.79138984453422
 1.03425940896539 2.92532736634168 1.79138984453422
 0.00000000000000 0.00000000000000 3.58277968906843
# Cartesian coordinates in Angstrom.
PRIMCOORD
 3 1
Au     0.00000000000000     0.00000000000000     0.00000000000000
O     1.03425940896539     0.73133184158542     1.79138984453422
O     3.10277822689618     2.19399552475626     5.37416953360266