CRYSTAL
# Primitive lattice vectors in Angstrom
PRIMVEC
 4.99484294891504 0.00000000000000 0.00000000000000
 -0.00000000000000 4.99484294891504 0.00000000000000
 0.00000000000000 0.00000000000000 4.99484294891504
# Cartesian coordinates in Angstrom.
PRIMCOORD
 10 1
Au     1.24871073722876     1.24871073722876     1.24871073722876
Au     3.74613221168628     3.74613221168628     1.24871073722876
Au     3.74613221168628     1.24871073722876     3.74613221168628
Au     1.24871073722876     3.74613221168628     3.74613221168628
O     2.49742147445753     0.00000000000000     0.00000000000000
O     0.00000000000000     2.49742147445753     0.00000000000000
O     0.00000000000000     0.00000000000000     2.49742147445753
O     2.49742147445753     2.49742147445753     0.00000000000000
O     2.49742147445753     0.00000000000000     2.49742147445753
O     0.00000000000000     2.49742147445753     2.49742147445753