CRYSTAL
# Primitive lattice vectors in Angstrom
PRIMVEC
 2.91112373748009 0.00000000000000 1.68073807347844
 0.97037457916003 2.74463378086040 1.68073807347844
 0.00000000000000 0.00000000000000 3.36147614695688
# Cartesian coordinates in Angstrom.
PRIMCOORD
 3 1
B     0.97037457916003     0.68615844521510     1.68073807347844
B     2.91112373748009     2.05847533564530     5.04221422043532
O     0.00000000000000     0.00000000000000     0.00000000000000