CRYSTAL
# Primitive lattice vectors in Angstrom
PRIMVEC
 4.08743200124058 0.00000000000000 0.00000000000000
 -0.00000000000000 4.08743200124058 0.00000000000000
 0.00000000000000 0.00000000000000 4.08743200124058
# Cartesian coordinates in Angstrom.
PRIMCOORD
 10 1
B     1.02185800031014     1.02185800031014     1.02185800031014
B     3.06557400093044     3.06557400093044     1.02185800031014
B     3.06557400093044     1.02185800031014     3.06557400093044
B     1.02185800031014     3.06557400093044     3.06557400093044
O     2.04371600062029     0.00000000000000     0.00000000000000
O     0.00000000000000     2.04371600062029     0.00000000000000
O     0.00000000000000     0.00000000000000     2.04371600062029
O     2.04371600062029     2.04371600062029     0.00000000000000
O     2.04371600062029     0.00000000000000     2.04371600062029
O     0.00000000000000     2.04371600062029     2.04371600062029