CRYSTAL
# Primitive lattice vectors in Angstrom
PRIMVEC
 4.64913246926589 0.00000000000000 0.00000000000000
 -0.00000000000000 4.64913246926589 0.00000000000000
 0.00000000000000 0.00000000000000 4.64913246926589
# Cartesian coordinates in Angstrom.
PRIMCOORD
 14 1
B     0.00000000000000     0.00000000000000     0.00000000000000
B     2.32456623463295     2.32456623463295     0.00000000000000
B     2.32456623463295     0.00000000000000     2.32456623463295
B     0.00000000000000     2.32456623463295     2.32456623463295
O     2.32456623463295     0.00000000000000     0.00000000000000
O     0.00000000000000     2.32456623463295     0.00000000000000
O     0.00000000000000     0.00000000000000     2.32456623463295
O     2.32456623463295     2.32456623463295     2.32456623463295
O     3.48684935194942     3.48684935194942     1.16228311731647
O     3.48684935194942     1.16228311731647     3.48684935194942
O     1.16228311731647     3.48684935194942     3.48684935194942
O     3.48684935194942     1.16228311731647     1.16228311731647
O     1.16228311731647     3.48684935194942     1.16228311731647
O     1.16228311731647     1.16228311731647     3.48684935194942