CRYSTAL
# Primitive lattice vectors in Angstrom
PRIMVEC
 2.60870298736165 0.00000000000000 1.50613537198903
 0.86956766245388 2.45950876328670 1.50613537198903
 0.00000000000000 0.00000000000000 3.01227074397805
# Cartesian coordinates in Angstrom.
PRIMCOORD
 3 1
B     0.00000000000000     0.00000000000000     0.00000000000000
O     0.86956766245388     0.61487719082168     1.50613537198903
O     2.60870298736165     1.84463157246503     4.51840611596709