CRYSTAL
# Primitive lattice vectors in Angstrom
PRIMVEC
 2.33429051784778 0.00000000000000 1.34770325884621
 0.77809683928259 2.20079020590616 1.34770325884621
 0.00000000000000 0.00000000000000 2.69540651769241
# Cartesian coordinates in Angstrom.
PRIMCOORD
 2 1
B     0.00000000000000     0.00000000000000     0.00000000000000
O     1.55619367856519     1.10039510295308     2.69540651769241