CRYSTAL
# Primitive lattice vectors in Angstrom
PRIMVEC
 3.16938586787430 0.00000000000000 0.00000000000000
 -0.00000000000000 3.16938586787430 0.00000000000000
 0.00000000000000 0.00000000000000 3.16938586787430
# Cartesian coordinates in Angstrom.
PRIMCOORD
 4 1
B     0.00000000000000     0.00000000000000     0.00000000000000
O     1.58469293393715     0.00000000000000     0.00000000000000
O     0.00000000000000     1.58469293393715     0.00000000000000
O     0.00000000000000     0.00000000000000     1.58469293393715