CRYSTAL
# Primitive lattice vectors in Angstrom
PRIMVEC
 5.86318670558664 0.00000000000000 0.00000000000000
 -0.00000000000000 5.86318670558664 0.00000000000000
 0.00000000000000 0.00000000000000 5.86318670558664
# Cartesian coordinates in Angstrom.
PRIMCOORD
 14 1
Ba     0.00000000000000     0.00000000000000     0.00000000000000
Ba     2.93159335279332     2.93159335279332     0.00000000000000
Ba     2.93159335279332     0.00000000000000     2.93159335279332
Ba     0.00000000000000     2.93159335279332     2.93159335279332
O     2.93159335279332     0.00000000000000     0.00000000000000
O     0.00000000000000     2.93159335279332     0.00000000000000
O     0.00000000000000     0.00000000000000     2.93159335279332
O     2.93159335279332     2.93159335279332     2.93159335279332
O     4.39739002918998     4.39739002918998     1.46579667639666
O     4.39739002918998     1.46579667639666     4.39739002918998
O     1.46579667639666     4.39739002918998     4.39739002918998
O     4.39739002918998     1.46579667639666     1.46579667639666
O     1.46579667639666     4.39739002918998     1.46579667639666
O     1.46579667639666     1.46579667639666     4.39739002918998