CRYSTAL
# Primitive lattice vectors in Angstrom
PRIMVEC
 5.96709222252145 0.00000000000000 0.00000000000000
 -0.00000000000000 5.96709222252145 0.00000000000000
 0.00000000000000 0.00000000000000 5.96709222252145
# Cartesian coordinates in Angstrom.
PRIMCOORD
 10 1
Ba     1.49177305563036     1.49177305563036     1.49177305563036
Ba     4.47531916689109     4.47531916689109     1.49177305563036
Ba     4.47531916689109     1.49177305563036     4.47531916689109
Ba     1.49177305563036     4.47531916689109     4.47531916689109
O     2.98354611126073     0.00000000000000     0.00000000000000
O     0.00000000000000     2.98354611126073     0.00000000000000
O     0.00000000000000     0.00000000000000     2.98354611126073
O     2.98354611126073     2.98354611126073     0.00000000000000
O     2.98354611126073     0.00000000000000     2.98354611126073
O     0.00000000000000     2.98354611126073     2.98354611126073