CRYSTAL
# Primitive lattice vectors in Angstrom
PRIMVEC
 4.01456632034547 0.00000000000000 2.31781094573106
 1.33818877344849 3.78496942485254 2.31781094573106
 0.00000000000000 0.00000000000000 4.63562189146213
# Cartesian coordinates in Angstrom.
PRIMCOORD
 3 1
Ba     1.33818877344849     0.94624235621313     2.31781094573106
Ba     4.01456632034547     2.83872706863941     6.95343283719319
O     0.00000000000000     0.00000000000000     0.00000000000000