CRYSTAL
# Primitive lattice vectors in Angstrom
PRIMVEC
 3.32796044585047 0.00000000000000 1.92139885926419
 1.10932014861682 3.13763119837529 1.92139885926419
 0.00000000000000 0.00000000000000 3.84279771852838
# Cartesian coordinates in Angstrom.
PRIMCOORD
 2 1
Ba     0.00000000000000     0.00000000000000     0.00000000000000
O     2.21864029723364     1.56881559918764     3.84279771852838