CRYSTAL
# Primitive lattice vectors in Angstrom
PRIMVEC
 3.65597360877677 0.00000000000000 2.11077734717744
 1.21865786959225 3.44688497414015 2.11077734717744
 0.00000000000000 0.00000000000000 4.22155469435487
# Cartesian coordinates in Angstrom.
PRIMCOORD
 3 1
Ba     0.00000000000000     0.00000000000000     0.00000000000000
O     1.21865786959225     0.86172124353504     2.11077734717744
O     3.65597360877677     2.58516373060511     6.33233204153232