CRYSTAL
# Primitive lattice vectors in Angstrom
PRIMVEC
 2.67470741179163 0.00000000000000 1.54424304420138
 0.89156913726387 2.52173833142371 1.54424304420138
 0.00000000000000 0.00000000000000 3.08848608840277
# Cartesian coordinates in Angstrom.
PRIMCOORD
 3 1
Be     0.00000000000000     0.00000000000000     0.00000000000000
O     0.89156913726387     0.63043458285593     1.54424304420138
O     2.67470741179163     1.89130374856778     4.63272913260416