CRYSTAL
# Primitive lattice vectors in Angstrom
PRIMVEC
 3.30149911661951 0.00000000000000 0.00000000000000
 -0.00000000000000 3.30149911661951 0.00000000000000
 0.00000000000000 0.00000000000000 3.30149911661951
# Cartesian coordinates in Angstrom.
PRIMCOORD
 4 1
Be     0.00000000000000     0.00000000000000     0.00000000000000
O     1.65074955830975     0.00000000000000     0.00000000000000
O     0.00000000000000     1.65074955830975     0.00000000000000
O     0.00000000000000     0.00000000000000     1.65074955830975