CRYSTAL
# Primitive lattice vectors in Angstrom
PRIMVEC
 2.85727541129668 0.00000000000000 1.64964872786104
 0.95242513709889 2.69386509206062 1.64964872786104
 0.00000000000000 0.00000000000000 3.29929745572208
# Cartesian coordinates in Angstrom.
PRIMCOORD
 3 1
Be     0.95242513709889     0.67346627301515     1.64964872786104
Be     2.85727541129668     2.02039881904546     4.94894618358311
O     0.00000000000000     0.00000000000000     0.00000000000000