CRYSTAL
# Primitive lattice vectors in Angstrom
PRIMVEC
 2.19192899751106 0.00000000000000 1.26551079675755
 0.73064299917035 2.06657047735933 1.26551079675755
 0.00000000000000 0.00000000000000 2.53102159351511
# Cartesian coordinates in Angstrom.
PRIMCOORD
 2 1
Be     0.00000000000000     0.00000000000000     0.00000000000000
O     1.46128599834070     1.03328523867966     2.53102159351511