CRYSTAL
# Primitive lattice vectors in Angstrom
PRIMVEC
 4.18096376639462 0.00000000000000 0.00000000000000
 -0.00000000000000 4.18096376639462 0.00000000000000
 0.00000000000000 0.00000000000000 4.18096376639462
# Cartesian coordinates in Angstrom.
PRIMCOORD
 10 1
Be     1.04524094159865     1.04524094159865     1.04524094159865
Be     3.13572282479597     3.13572282479597     1.04524094159865
Be     3.13572282479597     1.04524094159865     3.13572282479597
Be     1.04524094159865     3.13572282479597     3.13572282479597
O     2.09048188319731     0.00000000000000     0.00000000000000
O     0.00000000000000     2.09048188319731     0.00000000000000
O     0.00000000000000     0.00000000000000     2.09048188319731
O     2.09048188319731     2.09048188319731     0.00000000000000
O     2.09048188319731     0.00000000000000     2.09048188319731
O     0.00000000000000     2.09048188319731     2.09048188319731