CRYSTAL
# Primitive lattice vectors in Angstrom
PRIMVEC
 4.74372645328278 0.00000000000000 0.00000000000000
 -0.00000000000000 4.74372645328278 0.00000000000000
 0.00000000000000 0.00000000000000 4.74372645328278
# Cartesian coordinates in Angstrom.
PRIMCOORD
 14 1
Be     0.00000000000000     0.00000000000000     0.00000000000000
Be     2.37186322664139     2.37186322664139     0.00000000000000
Be     2.37186322664139     0.00000000000000     2.37186322664139
Be     0.00000000000000     2.37186322664139     2.37186322664139
O     2.37186322664139     0.00000000000000     0.00000000000000
O     0.00000000000000     2.37186322664139     0.00000000000000
O     0.00000000000000     0.00000000000000     2.37186322664139
O     2.37186322664139     2.37186322664139     2.37186322664139
O     3.55779483996209     3.55779483996209     1.18593161332070
O     3.55779483996209     1.18593161332070     3.55779483996209
O     1.18593161332070     3.55779483996209     3.55779483996209
O     3.55779483996209     1.18593161332070     1.18593161332070
O     1.18593161332070     3.55779483996209     1.18593161332070
O     1.18593161332070     1.18593161332070     3.55779483996209