CRYSTAL
# Primitive lattice vectors in Angstrom
PRIMVEC
 3.88798781404544 0.00000000000000 2.24473081104512
 1.29599593801514 3.66563006464292 2.24473081104512
 0.00000000000000 0.00000000000000 4.48946162209024
# Cartesian coordinates in Angstrom.
PRIMCOORD
 3 1
Bi     1.29599593801514     0.91640751616073     2.24473081104512
Bi     3.88798781404544     2.74922254848219     6.73419243313536
O     0.00000000000000     0.00000000000000     0.00000000000000