CRYSTAL
# Primitive lattice vectors in Angstrom
PRIMVEC
 3.13963534696689 0.00000000000000 1.81266931272859
 1.04654511565563 2.96007659239102 1.81266931272859
 0.00000000000000 0.00000000000000 3.62533862545719
# Cartesian coordinates in Angstrom.
PRIMCOORD
 2 1
Bi     0.00000000000000     0.00000000000000     0.00000000000000
O     2.09309023131126     1.48003829619550     3.62533862545719