CRYSTAL
# Primitive lattice vectors in Angstrom
PRIMVEC
 5.46522783594273 0.00000000000000 0.00000000000000
 -0.00000000000000 5.46522783594273 0.00000000000000
 0.00000000000000 0.00000000000000 5.46522783594273
# Cartesian coordinates in Angstrom.
PRIMCOORD
 14 1
Bi     0.00000000000000     0.00000000000000     0.00000000000000
Bi     2.73261391797136     2.73261391797136     0.00000000000000
Bi     2.73261391797136     0.00000000000000     2.73261391797136
Bi     0.00000000000000     2.73261391797136     2.73261391797136
O     2.73261391797136     0.00000000000000     0.00000000000000
O     0.00000000000000     2.73261391797136     0.00000000000000
O     0.00000000000000     0.00000000000000     2.73261391797136
O     2.73261391797136     2.73261391797136     2.73261391797136
O     4.09892087695705     4.09892087695705     1.36630695898568
O     4.09892087695705     1.36630695898568     4.09892087695705
O     1.36630695898568     4.09892087695705     4.09892087695705
O     4.09892087695705     1.36630695898568     1.36630695898568
O     1.36630695898568     4.09892087695705     1.36630695898568
O     1.36630695898568     1.36630695898568     4.09892087695705