CRYSTAL
# Primitive lattice vectors in Angstrom
PRIMVEC
 4.10461931358834 0.00000000000000 0.00000000000000
 -0.00000000000000 4.10461931358834 0.00000000000000
 0.00000000000000 0.00000000000000 4.10461931358834
# Cartesian coordinates in Angstrom.
PRIMCOORD
 4 1
Bi     0.00000000000000     0.00000000000000     0.00000000000000
O     2.05230965679416     0.00000000000000     0.00000000000000
O     0.00000000000000     2.05230965679416     0.00000000000000
O     0.00000000000000     0.00000000000000     2.05230965679416