CRYSTAL
# Primitive lattice vectors in Angstrom
PRIMVEC
 3.30537859850511 0.00000000000000 1.90836122362055
 1.10179286616837 3.11634082852247 1.90836122362055
 0.00000000000000 0.00000000000000 3.81672244724110
# Cartesian coordinates in Angstrom.
PRIMCOORD
 3 1
Bi     0.00000000000000     0.00000000000000     0.00000000000000
O     1.10179286616837     0.77908520713062     1.90836122362055
O     3.30537859850511     2.33725562139185     5.72508367086166