CRYSTAL
# Primitive lattice vectors in Angstrom
PRIMVEC
 5.46926725350841 0.00000000000000 0.00000000000000
 -0.00000000000000 5.46926725350841 0.00000000000000
 0.00000000000000 0.00000000000000 5.46926725350841
# Cartesian coordinates in Angstrom.
PRIMCOORD
 10 1
Bi     1.36731681337710     1.36731681337710     1.36731681337710
Bi     4.10195044013131     4.10195044013131     1.36731681337710
Bi     4.10195044013131     1.36731681337710     4.10195044013131
Bi     1.36731681337710     4.10195044013131     4.10195044013131
O     2.73463362675421     0.00000000000000     0.00000000000000
O     0.00000000000000     2.73463362675421     0.00000000000000
O     0.00000000000000     0.00000000000000     2.73463362675421
O     2.73463362675421     2.73463362675421     0.00000000000000
O     2.73463362675421     0.00000000000000     2.73463362675421
O     0.00000000000000     2.73463362675421     2.73463362675421