CRYSTAL
# Primitive lattice vectors in Angstrom
PRIMVEC
 2.83888746619464 0.00000000000000 1.63903244280653
 0.94629582206488 2.67652877116230 1.63903244280653
 0.00000000000000 0.00000000000000 3.27806488561305
# Cartesian coordinates in Angstrom.
PRIMCOORD
 2 1
Bk     0.00000000000000     0.00000000000000     0.00000000000000
O     1.89259164412976     1.33826438558114     3.27806488561305