CRYSTAL
# Primitive lattice vectors in Angstrom
PRIMVEC
 5.11006010008621 0.00000000000000 0.00000000000000
 -0.00000000000000 5.11006010008621 0.00000000000000
 0.00000000000000 0.00000000000000 5.11006010008621
# Cartesian coordinates in Angstrom.
PRIMCOORD
 10 1
Bk     1.27751502502155     1.27751502502155     1.27751502502155
Bk     3.83254507506466     3.83254507506466     1.27751502502155
Bk     3.83254507506466     1.27751502502155     3.83254507506466
Bk     1.27751502502155     3.83254507506466     3.83254507506466
O     2.55503005004311     0.00000000000000     0.00000000000000
O     0.00000000000000     2.55503005004311     0.00000000000000
O     0.00000000000000     0.00000000000000     2.55503005004311
O     2.55503005004311     2.55503005004311     0.00000000000000
O     2.55503005004311     0.00000000000000     2.55503005004311
O     0.00000000000000     2.55503005004311     2.55503005004311