CRYSTAL
# Primitive lattice vectors in Angstrom
PRIMVEC
 3.97695109159441 0.00000000000000 0.00000000000000
 -0.00000000000000 3.97695109159441 0.00000000000000
 0.00000000000000 0.00000000000000 3.97695109159441
# Cartesian coordinates in Angstrom.
PRIMCOORD
 4 1
Bk     0.00000000000000     0.00000000000000     0.00000000000000
O     1.98847554579720     0.00000000000000     0.00000000000000
O     0.00000000000000     1.98847554579720     0.00000000000000
O     0.00000000000000     0.00000000000000     1.98847554579720