CRYSTAL
# Primitive lattice vectors in Angstrom
PRIMVEC
 3.14355125272447 0.00000000000000 1.81493016197185
 1.04785041757482 2.96376854374525 1.81493016197185
 0.00000000000000 0.00000000000000 3.62986032394371
# Cartesian coordinates in Angstrom.
PRIMCOORD
 3 1
Bk     0.00000000000000     0.00000000000000     0.00000000000000
O     1.04785041757482     0.74094213593631     1.81493016197185
O     3.14355125272447     2.22282640780894     5.44479048591557