CRYSTAL
# Primitive lattice vectors in Angstrom
PRIMVEC
 3.38559033575621 0.00000000000000 1.95467149171465
 1.12853011191874 3.19196517964381 1.95467149171465
 0.00000000000000 0.00000000000000 3.90934298342930
# Cartesian coordinates in Angstrom.
PRIMCOORD
 3 1
Bk     1.12853011191874     0.79799129491095     1.95467149171465
Bk     3.38559033575621     2.39397388473286     5.86401447514394
O     0.00000000000000     0.00000000000000     0.00000000000000