CRYSTAL
# Primitive lattice vectors in Angstrom
PRIMVEC
 5.16580284491008 0.00000000000000 0.00000000000000
 -0.00000000000000 5.16580284491008 0.00000000000000
 0.00000000000000 0.00000000000000 5.16580284491008
# Cartesian coordinates in Angstrom.
PRIMCOORD
 14 1
Bk     0.00000000000000     0.00000000000000     0.00000000000000
Bk     2.58290142245504     2.58290142245504     0.00000000000000
Bk     2.58290142245504     0.00000000000000     2.58290142245504
Bk     0.00000000000000     2.58290142245504     2.58290142245504
O     2.58290142245504     0.00000000000000     0.00000000000000
O     0.00000000000000     2.58290142245504     0.00000000000000
O     0.00000000000000     0.00000000000000     2.58290142245504
O     2.58290142245504     2.58290142245504     2.58290142245504
O     3.87435213368256     3.87435213368256     1.29145071122752
O     3.87435213368256     1.29145071122752     3.87435213368256
O     1.29145071122752     3.87435213368256     3.87435213368256
O     3.87435213368256     1.29145071122752     1.29145071122752
O     1.29145071122752     3.87435213368256     1.29145071122752
O     1.29145071122752     1.29145071122752     3.87435213368256