CRYSTAL
# Primitive lattice vectors in Angstrom
PRIMVEC
 2.96823511728316 0.00000000000000 1.71371134398153
 0.98941170576105 2.79847890611596 1.71371134398153
 0.00000000000000 0.00000000000000 3.42742268796306
# Cartesian coordinates in Angstrom.
PRIMCOORD
 2 1
Br     0.00000000000000     0.00000000000000     0.00000000000000
O     1.97882341152211     1.39923945305798     3.42742268796306