CRYSTAL
# Primitive lattice vectors in Angstrom
PRIMVEC
 5.13397170335656 0.00000000000000 0.00000000000000
 -0.00000000000000 5.13397170335656 0.00000000000000
 0.00000000000000 0.00000000000000 5.13397170335656
# Cartesian coordinates in Angstrom.
PRIMCOORD
 10 1
Br     1.28349292583914     1.28349292583914     1.28349292583914
Br     3.85047877751742     3.85047877751742     1.28349292583914
Br     3.85047877751742     1.28349292583914     3.85047877751742
Br     1.28349292583914     3.85047877751742     3.85047877751742
O     2.56698585167828     0.00000000000000     0.00000000000000
O     0.00000000000000     2.56698585167828     0.00000000000000
O     0.00000000000000     0.00000000000000     2.56698585167828
O     2.56698585167828     2.56698585167828     0.00000000000000
O     2.56698585167828     0.00000000000000     2.56698585167828
O     0.00000000000000     2.56698585167828     2.56698585167828