CRYSTAL
# Primitive lattice vectors in Angstrom
PRIMVEC
 3.77057546163880 0.00000000000000 0.00000000000000
 -0.00000000000000 3.77057546163880 0.00000000000000
 0.00000000000000 0.00000000000000 3.77057546163880
# Cartesian coordinates in Angstrom.
PRIMCOORD
 4 1
Br     0.00000000000000     0.00000000000000     0.00000000000000
O     1.88528773081940     0.00000000000000     0.00000000000000
O     0.00000000000000     1.88528773081940     0.00000000000000
O     0.00000000000000     0.00000000000000     1.88528773081940