CRYSTAL
# Primitive lattice vectors in Angstrom
PRIMVEC
 3.14808527308009 0.00000000000000 1.81754787984468
 1.04936175769336 2.96804325913125 1.81754787984468
 0.00000000000000 0.00000000000000 3.63509575968936
# Cartesian coordinates in Angstrom.
PRIMCOORD
 3 1
Br     0.00000000000000     0.00000000000000     0.00000000000000
O     1.04936175769336     0.74201081478281     1.81754787984468
O     3.14808527308009     2.22603244434843     5.45264363953406