CRYSTAL
# Primitive lattice vectors in Angstrom
PRIMVEC
 3.67047826745258 0.00000000000000 2.11915161576842
 1.22349275581752 3.46056009748476 2.11915161576842
 0.00000000000000 0.00000000000000 4.23830323153684
# Cartesian coordinates in Angstrom.
PRIMCOORD
 3 1
Br     1.22349275581752     0.86514002437119     2.11915161576842
Br     3.67047826745258     2.59542007311357     6.35745484730526
O     0.00000000000000     0.00000000000000     0.00000000000000