CRYSTAL
# Primitive lattice vectors in Angstrom
PRIMVEC
 5.20859436749918 0.00000000000000 0.00000000000000
 -0.00000000000000 5.20859436749918 0.00000000000000
 0.00000000000000 0.00000000000000 5.20859436749918
# Cartesian coordinates in Angstrom.
PRIMCOORD
 14 1
Br     0.00000000000000     0.00000000000000     0.00000000000000
Br     2.60429718374959     2.60429718374959     0.00000000000000
Br     2.60429718374959     0.00000000000000     2.60429718374959
Br     0.00000000000000     2.60429718374959     2.60429718374959
O     2.60429718374959     0.00000000000000     0.00000000000000
O     0.00000000000000     2.60429718374959     0.00000000000000
O     0.00000000000000     0.00000000000000     2.60429718374959
O     2.60429718374959     2.60429718374959     2.60429718374959
O     3.90644577562439     3.90644577562439     1.30214859187480
O     3.90644577562439     1.30214859187480     3.90644577562439
O     1.30214859187480     3.90644577562439     3.90644577562439
O     3.90644577562439     1.30214859187480     1.30214859187480
O     1.30214859187480     3.90644577562439     1.30214859187480
O     1.30214859187480     1.30214859187480     3.90644577562439