CRYSTAL
# Primitive lattice vectors in Angstrom
PRIMVEC
 2.88684438165706 0.00000000000000 1.66672038085826
 0.96228146055235 2.72174298466665 1.66672038085826
 0.00000000000000 0.00000000000000 3.33344076171652
# Cartesian coordinates in Angstrom.
PRIMCOORD
 3 1
C     0.96228146055235     0.68043574616666     1.66672038085826
C     2.88684438165706     2.04130723849999     5.00016114257478
O     0.00000000000000     0.00000000000000     0.00000000000000