CRYSTAL
# Primitive lattice vectors in Angstrom
PRIMVEC
 4.27216313767134 0.00000000000000 0.00000000000000
 -0.00000000000000 4.27216313767134 0.00000000000000
 0.00000000000000 0.00000000000000 4.27216313767134
# Cartesian coordinates in Angstrom.
PRIMCOORD
 10 1
C     1.06804078441783     1.06804078441783     1.06804078441783
C     3.20412235325351     3.20412235325351     1.06804078441783
C     3.20412235325351     1.06804078441783     3.20412235325351
C     1.06804078441783     3.20412235325351     3.20412235325351
O     2.13608156883567     0.00000000000000     0.00000000000000
O     0.00000000000000     2.13608156883567     0.00000000000000
O     0.00000000000000     0.00000000000000     2.13608156883567
O     2.13608156883567     2.13608156883567     0.00000000000000
O     2.13608156883567     0.00000000000000     2.13608156883567
O     0.00000000000000     2.13608156883567     2.13608156883567