CRYSTAL
# Primitive lattice vectors in Angstrom
PRIMVEC
 4.73886363542540 0.00000000000000 0.00000000000000
 -0.00000000000000 4.73886363542540 0.00000000000000
 0.00000000000000 0.00000000000000 4.73886363542540
# Cartesian coordinates in Angstrom.
PRIMCOORD
 14 1
C     0.00000000000000     0.00000000000000     0.00000000000000
C     2.36943181771270     2.36943181771270     0.00000000000000
C     2.36943181771270     0.00000000000000     2.36943181771270
C     0.00000000000000     2.36943181771270     2.36943181771270
O     2.36943181771270     0.00000000000000     0.00000000000000
O     0.00000000000000     2.36943181771270     0.00000000000000
O     0.00000000000000     0.00000000000000     2.36943181771270
O     2.36943181771270     2.36943181771270     2.36943181771270
O     3.55414772656905     3.55414772656905     1.18471590885635
O     3.55414772656905     1.18471590885635     3.55414772656905
O     1.18471590885635     3.55414772656905     3.55414772656905
O     3.55414772656905     1.18471590885635     1.18471590885635
O     1.18471590885635     3.55414772656905     1.18471590885635
O     1.18471590885635     1.18471590885635     3.55414772656905