CRYSTAL
# Primitive lattice vectors in Angstrom
PRIMVEC
 2.37610952293027 0.00000000000000 1.37184747268782
 0.79203650764342 2.24021754200790 1.37184747268782
 0.00000000000000 0.00000000000000 2.74369494537564
# Cartesian coordinates in Angstrom.
PRIMCOORD
 2 1
C     0.00000000000000     0.00000000000000     0.00000000000000
O     1.58407301528684     1.12010877100395     2.74369494537564