CRYSTAL
# Primitive lattice vectors in Angstrom
PRIMVEC
 3.12662531902486 0.00000000000000 0.00000000000000
 -0.00000000000000 3.12662531902486 0.00000000000000
 0.00000000000000 0.00000000000000 3.12662531902486
# Cartesian coordinates in Angstrom.
PRIMCOORD
 4 1
C     0.00000000000000     0.00000000000000     0.00000000000000
O     1.56331265951243     0.00000000000000     0.00000000000000
O     0.00000000000000     1.56331265951243     0.00000000000000
O     0.00000000000000     0.00000000000000     1.56331265951243