CRYSTAL
# Primitive lattice vectors in Angstrom
PRIMVEC
 2.37352931094069 0.00000000000000 1.37035778660107
 0.79117643698023 2.23778489481492 1.37035778660107
 0.00000000000000 0.00000000000000 2.74071557320214
# Cartesian coordinates in Angstrom.
PRIMCOORD
 2 1
C     0.00000000000000     0.00000000000000     0.00000000000000
O     1.58235287396046     1.11889244740746     2.74071557320214