CRYSTAL
# Primitive lattice vectors in Angstrom
PRIMVEC
 2.68144177371646 0.00000000000000 1.54813112987150
 0.89381392457215 2.52808754873572 1.54813112987150
 0.00000000000000 0.00000000000000 3.09626225974300
# Cartesian coordinates in Angstrom.
PRIMCOORD
 3 1
C     0.00000000000000     0.00000000000000     0.00000000000000
O     0.89381392457215     0.63202188718393     1.54813112987150
O     2.68144177371646     1.89606566155179     4.64439338961451