CRYSTAL
# Primitive lattice vectors in Angstrom
PRIMVEC
 3.27570682877142 0.00000000000000 1.89123021937747
 1.09190227625714 3.08836601573781 1.89123021937747
 0.00000000000000 0.00000000000000 3.78246043875495
# Cartesian coordinates in Angstrom.
PRIMCOORD
 3 1
Ca     0.00000000000000     0.00000000000000     0.00000000000000
O     1.09190227625714     0.77209150393445     1.89123021937747
O     3.27570682877142     2.31627451180336     5.67369065813243