CRYSTAL
# Primitive lattice vectors in Angstrom
PRIMVEC
 4.36902994075536 0.00000000000000 0.00000000000000
 -0.00000000000000 4.36902994075536 0.00000000000000
 0.00000000000000 0.00000000000000 4.36902994075536
# Cartesian coordinates in Angstrom.
PRIMCOORD
 4 1
Ca     0.00000000000000     0.00000000000000     0.00000000000000
O     2.18451497037767     0.00000000000000     0.00000000000000
O     0.00000000000000     2.18451497037767     0.00000000000000
O     0.00000000000000     0.00000000000000     2.18451497037767