CRYSTAL
# Primitive lattice vectors in Angstrom
PRIMVEC
 5.27271228017720 0.00000000000000 0.00000000000000
 -0.00000000000000 5.27271228017720 0.00000000000000
 0.00000000000000 0.00000000000000 5.27271228017720
# Cartesian coordinates in Angstrom.
PRIMCOORD
 10 1
Ca     1.31817807004430     1.31817807004430     1.31817807004430
Ca     3.95453421013290     3.95453421013290     1.31817807004430
Ca     3.95453421013290     1.31817807004430     3.95453421013290
Ca     1.31817807004430     3.95453421013290     3.95453421013290
O     2.63635614008860     0.00000000000000     0.00000000000000
O     0.00000000000000     2.63635614008860     0.00000000000000
O     0.00000000000000     0.00000000000000     2.63635614008860
O     2.63635614008860     2.63635614008860     0.00000000000000
O     2.63635614008860     0.00000000000000     2.63635614008860
O     0.00000000000000     2.63635614008860     2.63635614008860