CRYSTAL
# Primitive lattice vectors in Angstrom
PRIMVEC
 5.33925067899341 0.00000000000000 0.00000000000000
 -0.00000000000000 5.33925067899341 0.00000000000000
 0.00000000000000 0.00000000000000 5.33925067899341
# Cartesian coordinates in Angstrom.
PRIMCOORD
 14 1
Ca     0.00000000000000     0.00000000000000     0.00000000000000
Ca     2.66962533949670     2.66962533949670     0.00000000000000
Ca     2.66962533949670     0.00000000000000     2.66962533949670
Ca     0.00000000000000     2.66962533949670     2.66962533949670
O     2.66962533949670     0.00000000000000     0.00000000000000
O     0.00000000000000     2.66962533949670     0.00000000000000
O     0.00000000000000     0.00000000000000     2.66962533949670
O     2.66962533949670     2.66962533949670     2.66962533949670
O     4.00443800924506     4.00443800924506     1.33481266974835
O     4.00443800924506     1.33481266974835     4.00443800924506
O     1.33481266974835     4.00443800924506     4.00443800924506
O     4.00443800924506     1.33481266974835     1.33481266974835
O     1.33481266974835     4.00443800924506     1.33481266974835
O     1.33481266974835     1.33481266974835     4.00443800924506