CRYSTAL
# Primitive lattice vectors in Angstrom
PRIMVEC
 2.88301825293835 0.00000000000000 1.66451136441256
 0.96100608431278 2.71813567591640 1.66451136441256
 0.00000000000000 0.00000000000000 3.32902272882511
# Cartesian coordinates in Angstrom.
PRIMCOORD
 2 1
Ca     0.00000000000000     0.00000000000000     0.00000000000000
O     1.92201216862556     1.35906783795819     3.32902272882511