CRYSTAL
# Primitive lattice vectors in Angstrom
PRIMVEC
 3.57583262591177 0.00000000000000 2.06450792914721
 1.19194420863725 3.37132733089375 2.06450792914721
 0.00000000000000 0.00000000000000 4.12901585829442
# Cartesian coordinates in Angstrom.
PRIMCOORD
 3 1
Ca     1.19194420863725     0.84283183272343     2.06450792914721
Ca     3.57583262591177     2.52849549817031     6.19352378744162
O     0.00000000000000     0.00000000000000     0.00000000000000