CRYSTAL
# Primitive lattice vectors in Angstrom
PRIMVEC
 3.17505851425739 0.00000000000000 1.83312088789932
 1.05835283808579 2.99347387479398 1.83312088789932
 0.00000000000000 0.00000000000000 3.66624177579863
# Cartesian coordinates in Angstrom.
PRIMCOORD
 3 1
Cd     0.00000000000000     0.00000000000000     0.00000000000000
O     1.05835283808579     0.74836846869850     1.83312088789932
O     3.17505851425739     2.24510540609549     5.49936266369796