CRYSTAL
# Primitive lattice vectors in Angstrom
PRIMVEC
 5.26189782181566 0.00000000000000 0.00000000000000
 -0.00000000000000 5.26189782181566 0.00000000000000
 0.00000000000000 0.00000000000000 5.26189782181566
# Cartesian coordinates in Angstrom.
PRIMCOORD
 14 1
Cd     0.00000000000000     0.00000000000000     0.00000000000000
Cd     2.63094891090783     2.63094891090783     0.00000000000000
Cd     2.63094891090783     0.00000000000000     2.63094891090783
Cd     0.00000000000000     2.63094891090783     2.63094891090783
O     2.63094891090783     0.00000000000000     0.00000000000000
O     0.00000000000000     2.63094891090783     0.00000000000000
O     0.00000000000000     0.00000000000000     2.63094891090783
O     2.63094891090783     2.63094891090783     2.63094891090783
O     3.94642336636175     3.94642336636175     1.31547445545392
O     3.94642336636175     1.31547445545392     3.94642336636175
O     1.31547445545392     3.94642336636175     3.94642336636175
O     3.94642336636175     1.31547445545392     1.31547445545392
O     1.31547445545392     3.94642336636175     1.31547445545392
O     1.31547445545392     1.31547445545392     3.94642336636175