CRYSTAL
# Primitive lattice vectors in Angstrom
PRIMVEC
 4.03253348460260 0.00000000000000 0.00000000000000
 -0.00000000000000 4.03253348460260 0.00000000000000
 0.00000000000000 0.00000000000000 4.03253348460260
# Cartesian coordinates in Angstrom.
PRIMCOORD
 4 1
Cd     0.00000000000000     0.00000000000000     0.00000000000000
O     2.01626674230130     0.00000000000000     0.00000000000000
O     0.00000000000000     2.01626674230130     0.00000000000000
O     0.00000000000000     0.00000000000000     2.01626674230130