CRYSTAL
# Primitive lattice vectors in Angstrom
PRIMVEC
 2.83828546564378 0.00000000000000 1.63868487762643
 0.94609515521459 2.67596119959991 1.63868487762643
 0.00000000000000 0.00000000000000 3.27736975525287
# Cartesian coordinates in Angstrom.
PRIMCOORD
 2 1
Cd     0.00000000000000     0.00000000000000     0.00000000000000
O     1.89219031042918     1.33798059979995     3.27736975525287