CRYSTAL
# Primitive lattice vectors in Angstrom
PRIMVEC
 5.10908792036357 0.00000000000000 0.00000000000000
 -0.00000000000000 5.10908792036357 0.00000000000000
 0.00000000000000 0.00000000000000 5.10908792036357
# Cartesian coordinates in Angstrom.
PRIMCOORD
 10 1
Cd     1.27727198009089     1.27727198009089     1.27727198009089
Cd     3.83181594027268     3.83181594027268     1.27727198009089
Cd     3.83181594027268     1.27727198009089     3.83181594027268
Cd     1.27727198009089     3.83181594027268     3.83181594027268
O     2.55454396018179     0.00000000000000     0.00000000000000
O     0.00000000000000     2.55454396018179     0.00000000000000
O     0.00000000000000     0.00000000000000     2.55454396018179
O     2.55454396018179     2.55454396018179     0.00000000000000
O     2.55454396018179     0.00000000000000     2.55454396018179
O     0.00000000000000     2.55454396018179     2.55454396018179