CRYSTAL
# Primitive lattice vectors in Angstrom
PRIMVEC
 3.53013529154549 0.00000000000000 2.03812456084959
 1.17671176384849 3.32824347087702 2.03812456084959
 0.00000000000000 0.00000000000000 4.07624912169918
# Cartesian coordinates in Angstrom.
PRIMCOORD
 3 1
Cd     1.17671176384849     0.83206086771925     2.03812456084959
Cd     3.53013529154549     2.49618260315777     6.11437368254876
O     0.00000000000000     0.00000000000000     0.00000000000000