CRYSTAL
# Primitive lattice vectors in Angstrom
PRIMVEC
 5.36456598665607 0.00000000000000 0.00000000000000
 -0.00000000000000 5.36456598665607 0.00000000000000
 0.00000000000000 0.00000000000000 5.36456598665607
# Cartesian coordinates in Angstrom.
PRIMCOORD
 10 1
Ce     1.34114149666402     1.34114149666402     1.34114149666402
Ce     4.02342448999206     4.02342448999206     1.34114149666402
Ce     4.02342448999206     1.34114149666402     4.02342448999206
Ce     1.34114149666402     4.02342448999206     4.02342448999206
O     2.68228299332804     0.00000000000000     0.00000000000000
O     0.00000000000000     2.68228299332804     0.00000000000000
O     0.00000000000000     0.00000000000000     2.68228299332804
O     2.68228299332804     2.68228299332804     0.00000000000000
O     2.68228299332804     0.00000000000000     2.68228299332804
O     0.00000000000000     2.68228299332804     2.68228299332804