CRYSTAL
# Primitive lattice vectors in Angstrom
PRIMVEC
 3.61713044480237 0.00000000000000 2.08835123600064
 1.20571014826745 3.41026328794142 2.08835123600064
 0.00000000000000 0.00000000000000 4.17670247200128
# Cartesian coordinates in Angstrom.
PRIMCOORD
 3 1
Ce     1.20571014826745     0.85256582198535     2.08835123600064
Ce     3.61713044480237     2.55769746595607     6.26505370800192
O     0.00000000000000     0.00000000000000     0.00000000000000