CRYSTAL
# Primitive lattice vectors in Angstrom
PRIMVEC
 3.28198971748193 0.00000000000000 1.89485764686577
 1.09399657249397 3.09428958002133 1.89485764686577
 0.00000000000000 0.00000000000000 3.78971529373155
# Cartesian coordinates in Angstrom.
PRIMCOORD
 3 1
Ce     0.00000000000000     0.00000000000000     0.00000000000000
O     1.09399657249397     0.77357239500533     1.89485764686577
O     3.28198971748193     2.32071718501600     5.68457294059733