CRYSTAL
# Primitive lattice vectors in Angstrom
PRIMVEC
 2.99084462976214 0.00000000000000 1.72676495209752
 0.99694820992071 2.81979535890690 1.72676495209752
 0.00000000000000 0.00000000000000 3.45352990419503
# Cartesian coordinates in Angstrom.
PRIMCOORD
 2 1
Ce     0.00000000000000     0.00000000000000     0.00000000000000
O     1.99389641984143     1.40989767945345     3.45352990419503