CRYSTAL
# Primitive lattice vectors in Angstrom
PRIMVEC
 4.19822195608466 0.00000000000000 0.00000000000000
 -0.00000000000000 4.19822195608466 0.00000000000000
 0.00000000000000 0.00000000000000 4.19822195608466
# Cartesian coordinates in Angstrom.
PRIMCOORD
 4 1
Ce     0.00000000000000     0.00000000000000     0.00000000000000
O     2.09911097804232     0.00000000000000     0.00000000000000
O     0.00000000000000     2.09911097804232     0.00000000000000
O     0.00000000000000     0.00000000000000     2.09911097804232