CRYSTAL
# Primitive lattice vectors in Angstrom
PRIMVEC
 5.39090930169753 0.00000000000000 0.00000000000000
 -0.00000000000000 5.39090930169753 0.00000000000000
 0.00000000000000 0.00000000000000 5.39090930169753
# Cartesian coordinates in Angstrom.
PRIMCOORD
 14 1
Ce     0.00000000000000     0.00000000000000     0.00000000000000
Ce     2.69545465084876     2.69545465084876     0.00000000000000
Ce     2.69545465084876     0.00000000000000     2.69545465084876
Ce     0.00000000000000     2.69545465084876     2.69545465084876
O     2.69545465084876     0.00000000000000     0.00000000000000
O     0.00000000000000     2.69545465084876     0.00000000000000
O     0.00000000000000     0.00000000000000     2.69545465084876
O     2.69545465084876     2.69545465084876     2.69545465084876
O     4.04318197627315     4.04318197627315     1.34772732542438
O     4.04318197627315     1.34772732542438     4.04318197627315
O     1.34772732542438     4.04318197627315     4.04318197627315
O     4.04318197627315     1.34772732542438     1.34772732542438
O     1.34772732542438     4.04318197627315     1.34772732542438
O     1.34772732542438     1.34772732542438     4.04318197627315