CRYSTAL
# Primitive lattice vectors in Angstrom
PRIMVEC
 5.11533594672984 0.00000000000000 0.00000000000000
 -0.00000000000000 5.11533594672984 0.00000000000000
 0.00000000000000 0.00000000000000 5.11533594672984
# Cartesian coordinates in Angstrom.
PRIMCOORD
 10 1
Cf     1.27883398668246     1.27883398668246     1.27883398668246
Cf     3.83650196004739     3.83650196004739     1.27883398668246
Cf     3.83650196004739     1.27883398668246     3.83650196004739
Cf     1.27883398668246     3.83650196004739     3.83650196004739
O     2.55766797336493     0.00000000000000     0.00000000000000
O     0.00000000000000     2.55766797336493     0.00000000000000
O     0.00000000000000     0.00000000000000     2.55766797336493
O     2.55766797336493     2.55766797336493     0.00000000000000
O     2.55766797336493     0.00000000000000     2.55766797336493
O     0.00000000000000     2.55766797336493     2.55766797336493