CRYSTAL
# Primitive lattice vectors in Angstrom
PRIMVEC
 2.85110957428459 0.00000000000000 1.64608888020233
 0.95036985809486 2.68805188517670 1.64608888020233
 0.00000000000000 0.00000000000000 3.29217776040465
# Cartesian coordinates in Angstrom.
PRIMCOORD
 2 1
Cf     0.00000000000000     0.00000000000000     0.00000000000000
O     1.90073971618973     1.34402594258835     3.29217776040465