CRYSTAL
# Primitive lattice vectors in Angstrom
PRIMVEC
 3.97942022322387 0.00000000000000 0.00000000000000
 -0.00000000000000 3.97942022322387 0.00000000000000
 0.00000000000000 0.00000000000000 3.97942022322387
# Cartesian coordinates in Angstrom.
PRIMCOORD
 4 1
Cf     0.00000000000000     0.00000000000000     0.00000000000000
O     1.98971011161193     0.00000000000000     0.00000000000000
O     0.00000000000000     1.98971011161193     0.00000000000000
O     0.00000000000000     0.00000000000000     1.98971011161193