CRYSTAL
# Primitive lattice vectors in Angstrom
PRIMVEC
 3.41150777752366 0.00000000000000 1.96963493369579
 1.13716925917455 3.21640037807683 1.96963493369579
 0.00000000000000 0.00000000000000 3.93926986739157
# Cartesian coordinates in Angstrom.
PRIMCOORD
 3 1
Cf     1.13716925917455     0.80410009451921     1.96963493369579
Cf     3.41150777752366     2.41230028355763     5.90890480108736
O     0.00000000000000     0.00000000000000     0.00000000000000