CRYSTAL
# Primitive lattice vectors in Angstrom
PRIMVEC
 5.17526057745541 0.00000000000000 0.00000000000000
 -0.00000000000000 5.17526057745541 0.00000000000000
 0.00000000000000 0.00000000000000 5.17526057745541
# Cartesian coordinates in Angstrom.
PRIMCOORD
 14 1
Cf     0.00000000000000     0.00000000000000     0.00000000000000
Cf     2.58763028872771     2.58763028872771     0.00000000000000
Cf     2.58763028872771     0.00000000000000     2.58763028872771
Cf     0.00000000000000     2.58763028872771     2.58763028872771
O     2.58763028872771     0.00000000000000     0.00000000000000
O     0.00000000000000     2.58763028872771     0.00000000000000
O     0.00000000000000     0.00000000000000     2.58763028872771
O     2.58763028872771     2.58763028872771     2.58763028872771
O     3.88144543309156     3.88144543309156     1.29381514436385
O     3.88144543309156     1.29381514436385     3.88144543309156
O     1.29381514436385     3.88144543309156     3.88144543309156
O     3.88144543309156     1.29381514436385     1.29381514436385
O     1.29381514436385     3.88144543309156     1.29381514436385
O     1.29381514436385     1.29381514436385     3.88144543309156