CRYSTAL
# Primitive lattice vectors in Angstrom
PRIMVEC
 3.14556630978662 0.00000000000000 1.81609355570912
 1.04852210326220 2.96566835776275 1.81609355570912
 0.00000000000000 0.00000000000000 3.63218711141824
# Cartesian coordinates in Angstrom.
PRIMCOORD
 3 1
Cf     0.00000000000000     0.00000000000000     0.00000000000000
O     1.04852210326220     0.74141708944069     1.81609355570912
O     3.14556630978662     2.22425126832206     5.44828066712737