CRYSTAL
# Primitive lattice vectors in Angstrom
PRIMVEC
 5.12148233977101 0.00000000000000 0.00000000000000
 -0.00000000000000 5.12148233977101 0.00000000000000
 0.00000000000000 0.00000000000000 5.12148233977101
# Cartesian coordinates in Angstrom.
PRIMCOORD
 14 1
Cl     0.00000000000000     0.00000000000000     0.00000000000000
Cl     2.56074116988551     2.56074116988551     0.00000000000000
Cl     2.56074116988551     0.00000000000000     2.56074116988551
Cl     0.00000000000000     2.56074116988551     2.56074116988551
O     2.56074116988551     0.00000000000000     0.00000000000000
O     0.00000000000000     2.56074116988551     0.00000000000000
O     0.00000000000000     0.00000000000000     2.56074116988551
O     2.56074116988551     2.56074116988551     2.56074116988551
O     3.84111175482826     3.84111175482826     1.28037058494275
O     3.84111175482826     1.28037058494275     3.84111175482826
O     1.28037058494275     3.84111175482826     3.84111175482826
O     3.84111175482826     1.28037058494275     1.28037058494275
O     1.28037058494275     3.84111175482826     1.28037058494275
O     1.28037058494275     1.28037058494275     3.84111175482826