CRYSTAL
# Primitive lattice vectors in Angstrom
PRIMVEC
 3.51354271582846 0.00000000000000 2.02854483279281
 1.17118090527615 3.31259984046787 2.02854483279281
 0.00000000000000 0.00000000000000 4.05708966558563
# Cartesian coordinates in Angstrom.
PRIMCOORD
 3 1
Cl     1.17118090527615     0.82814996011697     2.02854483279281
Cl     3.51354271582846     2.48444988035091     6.08563449837844
O     0.00000000000000     0.00000000000000     0.00000000000000