CRYSTAL
# Primitive lattice vectors in Angstrom
PRIMVEC
 3.06396027353447 0.00000000000000 1.76897828871144
 1.02132009117815 2.88872944893655 1.76897828871144
 0.00000000000000 0.00000000000000 3.53795657742289
# Cartesian coordinates in Angstrom.
PRIMCOORD
 3 1
Cl     0.00000000000000     0.00000000000000     0.00000000000000
O     1.02132009117815     0.72218236223414     1.76897828871144
O     3.06396027353447     2.16654708670242     5.30693486613434