CRYSTAL
# Primitive lattice vectors in Angstrom
PRIMVEC
 4.96962798031491 0.00000000000000 0.00000000000000
 -0.00000000000000 4.96962798031491 0.00000000000000
 0.00000000000000 0.00000000000000 4.96962798031491
# Cartesian coordinates in Angstrom.
PRIMCOORD
 10 1
Cl     1.24240699507872     1.24240699507872     1.24240699507872
Cl     3.72722098523618     3.72722098523618     1.24240699507872
Cl     3.72722098523618     1.24240699507872     3.72722098523618
Cl     1.24240699507872     3.72722098523618     3.72722098523618
O     2.48481399015746     0.00000000000000     0.00000000000000
O     0.00000000000000     2.48481399015746     0.00000000000000
O     0.00000000000000     0.00000000000000     2.48481399015746
O     2.48481399015746     2.48481399015746     0.00000000000000
O     2.48481399015746     0.00000000000000     2.48481399015746
O     0.00000000000000     2.48481399015746     2.48481399015746