CRYSTAL
# Primitive lattice vectors in Angstrom
PRIMVEC
 3.61054774308691 0.00000000000000 0.00000000000000
 -0.00000000000000 3.61054774308691 0.00000000000000
 0.00000000000000 0.00000000000000 3.61054774308691
# Cartesian coordinates in Angstrom.
PRIMCOORD
 4 1
Cl     0.00000000000000     0.00000000000000     0.00000000000000
O     1.80527387154345     0.00000000000000     0.00000000000000
O     0.00000000000000     1.80527387154345     0.00000000000000
O     0.00000000000000     0.00000000000000     1.80527387154345