CRYSTAL
# Primitive lattice vectors in Angstrom
PRIMVEC
 2.82332706305824 0.00000000000000 1.63004863986703
 0.94110902101941 2.66185828239464 1.63004863986703
 0.00000000000000 0.00000000000000 3.26009727973406
# Cartesian coordinates in Angstrom.
PRIMCOORD
 2 1
Cl     0.00000000000000     0.00000000000000     0.00000000000000
O     1.88221804203883     1.33092914119732     3.26009727973406