CRYSTAL
# Primitive lattice vectors in Angstrom
PRIMVEC
 3.15089849717300 0.00000000000000 1.81917209553202
 1.05029949905766 2.97069559224204 1.81917209553202
 0.00000000000000 0.00000000000000 3.63834419106403
# Cartesian coordinates in Angstrom.
PRIMCOORD
 3 1
Cm     0.00000000000000     0.00000000000000     0.00000000000000
O     1.05029949905766     0.74267389806051     1.81917209553202
O     3.15089849717300     2.22802169418153     5.45751628659606