CRYSTAL
# Primitive lattice vectors in Angstrom
PRIMVEC
 2.83252322380150 0.00000000000000 1.63535804574766
 0.94417440793383 2.67052850589122 1.63535804574766
 0.00000000000000 0.00000000000000 3.27071609149532
# Cartesian coordinates in Angstrom.
PRIMCOORD
 2 1
Cm     0.00000000000000     0.00000000000000     0.00000000000000
O     1.88834881586766     1.33526425294561     3.27071609149532