CRYSTAL
# Primitive lattice vectors in Angstrom
PRIMVEC
 3.36964201474217 0.00000000000000 1.94546372428407
 1.12321400491405 3.17692895839372 1.94546372428407
 0.00000000000000 0.00000000000000 3.89092744856813
# Cartesian coordinates in Angstrom.
PRIMCOORD
 3 1
Cm     1.12321400491405     0.79423223959843     1.94546372428407
Cm     3.36964201474217     2.38269671879529     5.83639117285220
O     0.00000000000000     0.00000000000000     0.00000000000000