CRYSTAL
# Primitive lattice vectors in Angstrom
PRIMVEC
 3.98544577575011 0.00000000000000 0.00000000000000
 -0.00000000000000 3.98544577575011 0.00000000000000
 0.00000000000000 0.00000000000000 3.98544577575011
# Cartesian coordinates in Angstrom.
PRIMCOORD
 4 1
Cm     0.00000000000000     0.00000000000000     0.00000000000000
O     1.99272288787505     0.00000000000000     0.00000000000000
O     0.00000000000000     1.99272288787505     0.00000000000000
O     0.00000000000000     0.00000000000000     1.99272288787505