CRYSTAL
# Primitive lattice vectors in Angstrom
PRIMVEC
 5.16152680687562 0.00000000000000 0.00000000000000
 -0.00000000000000 5.16152680687562 0.00000000000000
 0.00000000000000 0.00000000000000 5.16152680687562
# Cartesian coordinates in Angstrom.
PRIMCOORD
 14 1
Cm     0.00000000000000     0.00000000000000     0.00000000000000
Cm     2.58076340343781     2.58076340343781     0.00000000000000
Cm     2.58076340343781     0.00000000000000     2.58076340343781
Cm     0.00000000000000     2.58076340343781     2.58076340343781
O     2.58076340343781     0.00000000000000     0.00000000000000
O     0.00000000000000     2.58076340343781     0.00000000000000
O     0.00000000000000     0.00000000000000     2.58076340343781
O     2.58076340343781     2.58076340343781     2.58076340343781
O     3.87114510515671     3.87114510515671     1.29038170171890
O     3.87114510515671     1.29038170171890     3.87114510515671
O     1.29038170171890     3.87114510515671     3.87114510515671
O     3.87114510515671     1.29038170171890     1.29038170171890
O     1.29038170171890     3.87114510515671     1.29038170171890
O     1.29038170171890     1.29038170171890     3.87114510515671