CRYSTAL
# Primitive lattice vectors in Angstrom
PRIMVEC
 5.11016551797179 0.00000000000000 0.00000000000000
 -0.00000000000000 5.11016551797179 0.00000000000000
 0.00000000000000 0.00000000000000 5.11016551797179
# Cartesian coordinates in Angstrom.
PRIMCOORD
 10 1
Cm     1.27754137949294     1.27754137949294     1.27754137949294
Cm     3.83262413847884     3.83262413847884     1.27754137949294
Cm     3.83262413847884     1.27754137949294     3.83262413847884
Cm     1.27754137949294     3.83262413847884     3.83262413847884
O     2.55508275898590     0.00000000000000     0.00000000000000
O     0.00000000000000     2.55508275898590     0.00000000000000
O     0.00000000000000     0.00000000000000     2.55508275898590
O     2.55508275898590     2.55508275898590     0.00000000000000
O     2.55508275898590     0.00000000000000     2.55508275898590
O     0.00000000000000     2.55508275898590     2.55508275898590