CRYSTAL
# Primitive lattice vectors in Angstrom
PRIMVEC
 2.77698254956847 0.00000000000000 1.60329162252825
 0.92566084985615 2.61816425604877 1.60329162252825
 0.00000000000000 0.00000000000000 3.20658324505650
# Cartesian coordinates in Angstrom.
PRIMCOORD
 3 1
Co     0.00000000000000     0.00000000000000     0.00000000000000
O     0.92566084985615     0.65454106401219     1.60329162252825
O     2.77698254956847     1.96362319203657     4.80987486758475