CRYSTAL
# Primitive lattice vectors in Angstrom
PRIMVEC
 4.38094351757911 0.00000000000000 0.00000000000000
 -0.00000000000000 4.38094351757911 0.00000000000000
 0.00000000000000 0.00000000000000 4.38094351757911
# Cartesian coordinates in Angstrom.
PRIMCOORD
 10 1
Co     1.09523587939477     1.09523587939477     1.09523587939477
Co     3.28570763818433     3.28570763818433     1.09523587939477
Co     3.28570763818433     1.09523587939477     3.28570763818433
Co     1.09523587939477     3.28570763818433     3.28570763818433
O     2.19047175878956     0.00000000000000     0.00000000000000
O     0.00000000000000     2.19047175878956     0.00000000000000
O     0.00000000000000     0.00000000000000     2.19047175878956
O     2.19047175878956     2.19047175878956     0.00000000000000
O     2.19047175878956     0.00000000000000     2.19047175878956
O     0.00000000000000     2.19047175878956     2.19047175878956