CRYSTAL
# Primitive lattice vectors in Angstrom
PRIMVEC
 2.44282116918579 0.00000000000000 1.41036345961153
 0.81427372306193 2.30311388527643 1.41036345961153
 0.00000000000000 0.00000000000000 2.82072691922305
# Cartesian coordinates in Angstrom.
PRIMCOORD
 2 1
Co     0.00000000000000     0.00000000000000     0.00000000000000
O     1.62854744612386     1.15155694263821     2.82072691922305