CRYSTAL
# Primitive lattice vectors in Angstrom
PRIMVEC
 3.52686335442742 0.00000000000000 0.00000000000000
 -0.00000000000000 3.52686335442742 0.00000000000000
 0.00000000000000 0.00000000000000 3.52686335442742
# Cartesian coordinates in Angstrom.
PRIMCOORD
 4 1
Co     0.00000000000000     0.00000000000000     0.00000000000000
O     1.76343167721371     0.00000000000000     0.00000000000000
O     0.00000000000000     1.76343167721371     0.00000000000000
O     0.00000000000000     0.00000000000000     1.76343167721371