CRYSTAL
# Primitive lattice vectors in Angstrom
PRIMVEC
 4.76891317908886 0.00000000000000 0.00000000000000
 -0.00000000000000 4.76891317908886 0.00000000000000
 0.00000000000000 0.00000000000000 4.76891317908886
# Cartesian coordinates in Angstrom.
PRIMCOORD
 14 1
Co     0.00000000000000     0.00000000000000     0.00000000000000
Co     2.38445658954443     2.38445658954443     0.00000000000000
Co     2.38445658954443     0.00000000000000     2.38445658954443
Co     0.00000000000000     2.38445658954443     2.38445658954443
O     2.38445658954443     0.00000000000000     0.00000000000000
O     0.00000000000000     2.38445658954443     0.00000000000000
O     0.00000000000000     0.00000000000000     2.38445658954443
O     2.38445658954443     2.38445658954443     2.38445658954443
O     3.57668488431664     3.57668488431664     1.19222829477221
O     3.57668488431664     1.19222829477221     3.57668488431664
O     1.19222829477221     3.57668488431664     3.57668488431664
O     3.57668488431664     1.19222829477221     1.19222829477221
O     1.19222829477221     3.57668488431664     1.19222829477221
O     1.19222829477221     1.19222829477221     3.57668488431664