CRYSTAL
# Primitive lattice vectors in Angstrom
PRIMVEC
 2.92808393821367 0.00000000000000 1.69053004993748
 0.97602797940455 2.76062401145906 1.69053004993748
 0.00000000000000 0.00000000000000 3.38106009987497
# Cartesian coordinates in Angstrom.
PRIMCOORD
 3 1
Co     0.97602797940455     0.69015600286476     1.69053004993748
Co     2.92808393821367     2.07046800859430     5.07159014981245
O     0.00000000000000     0.00000000000000     0.00000000000000