CRYSTAL
# Primitive lattice vectors in Angstrom
PRIMVEC
 4.48665291983832 0.00000000000000 0.00000000000000
 -0.00000000000000 4.48665291983832 0.00000000000000
 0.00000000000000 0.00000000000000 4.48665291983832
# Cartesian coordinates in Angstrom.
PRIMCOORD
 10 1
Cr     1.12166322995958     1.12166322995958     1.12166322995958
Cr     3.36498968987874     3.36498968987874     1.12166322995958
Cr     3.36498968987874     1.12166322995958     3.36498968987874
Cr     1.12166322995958     3.36498968987874     3.36498968987874
O     2.24332645991916     0.00000000000000     0.00000000000000
O     0.00000000000000     2.24332645991916     0.00000000000000
O     0.00000000000000     0.00000000000000     2.24332645991916
O     2.24332645991916     2.24332645991916     0.00000000000000
O     2.24332645991916     0.00000000000000     2.24332645991916
O     0.00000000000000     2.24332645991916     2.24332645991916