CRYSTAL
# Primitive lattice vectors in Angstrom
PRIMVEC
 2.95435036817857 0.00000000000000 1.70569498034837
 0.98478345605952 2.78538823912005 1.70569498034837
 0.00000000000000 0.00000000000000 3.41138996069674
# Cartesian coordinates in Angstrom.
PRIMCOORD
 3 1
Cr     0.98478345605952     0.69634705978001     1.70569498034837
Cr     2.95435036817857     2.08904117934004     5.11708494104510
O     0.00000000000000     0.00000000000000     0.00000000000000