CRYSTAL
# Primitive lattice vectors in Angstrom
PRIMVEC
 2.79651985834446 0.00000000000000 1.61457149300931
 0.93217328611482 2.63658420741095 1.61457149300931
 0.00000000000000 0.00000000000000 3.22914298601862
# Cartesian coordinates in Angstrom.
PRIMCOORD
 3 1
Cr     0.00000000000000     0.00000000000000     0.00000000000000
O     0.93217328611482     0.65914605185274     1.61457149300931
O     2.79651985834446     1.97743815555822     4.84371447902793