CRYSTAL
# Primitive lattice vectors in Angstrom
PRIMVEC
 3.54181526242044 0.00000000000000 0.00000000000000
 -0.00000000000000 3.54181526242044 0.00000000000000
 0.00000000000000 0.00000000000000 3.54181526242044
# Cartesian coordinates in Angstrom.
PRIMCOORD
 4 1
Cr     0.00000000000000     0.00000000000000     0.00000000000000
O     1.77090763121021     0.00000000000000     0.00000000000000
O     0.00000000000000     1.77090763121021     0.00000000000000
O     0.00000000000000     0.00000000000000     1.77090763121021