CRYSTAL
# Primitive lattice vectors in Angstrom
PRIMVEC
 2.46803414968614 0.00000000000000 1.42492018069048
 0.82267804989538 2.32688491125739 1.42492018069048
 0.00000000000000 0.00000000000000 2.84984036138096
# Cartesian coordinates in Angstrom.
PRIMCOORD
 2 1
Cr     0.00000000000000     0.00000000000000     0.00000000000000
O     1.64535609979076     1.16344245562869     2.84984036138096