CRYSTAL
# Primitive lattice vectors in Angstrom
PRIMVEC
 4.76182426998453 0.00000000000000 0.00000000000000
 -0.00000000000000 4.76182426998453 0.00000000000000
 0.00000000000000 0.00000000000000 4.76182426998453
# Cartesian coordinates in Angstrom.
PRIMCOORD
 14 1
Cr     0.00000000000000     0.00000000000000     0.00000000000000
Cr     2.38091213499227     2.38091213499227     0.00000000000000
Cr     2.38091213499227     0.00000000000000     2.38091213499227
Cr     0.00000000000000     2.38091213499227     2.38091213499227
O     2.38091213499227     0.00000000000000     0.00000000000000
O     0.00000000000000     2.38091213499227     0.00000000000000
O     0.00000000000000     0.00000000000000     2.38091213499227
O     2.38091213499227     2.38091213499227     2.38091213499227
O     3.57136820248840     3.57136820248840     1.19045606749613
O     3.57136820248840     1.19045606749613     3.57136820248840
O     1.19045606749613     3.57136820248840     3.57136820248840
O     3.57136820248840     1.19045606749613     1.19045606749613
O     1.19045606749613     3.57136820248840     1.19045606749613
O     1.19045606749613     1.19045606749613     3.57136820248840