CRYSTAL
# Primitive lattice vectors in Angstrom
PRIMVEC
 5.83333051596675 0.00000000000000 0.00000000000000
 -0.00000000000000 5.83333051596675 0.00000000000000
 0.00000000000000 0.00000000000000 5.83333051596675
# Cartesian coordinates in Angstrom.
PRIMCOORD
 14 1
Cs     0.00000000000000     0.00000000000000     0.00000000000000
Cs     2.91666525798337     2.91666525798337     0.00000000000000
Cs     2.91666525798337     0.00000000000000     2.91666525798337
Cs     0.00000000000000     2.91666525798337     2.91666525798337
O     2.91666525798337     0.00000000000000     0.00000000000000
O     0.00000000000000     2.91666525798337     0.00000000000000
O     0.00000000000000     0.00000000000000     2.91666525798337
O     2.91666525798337     2.91666525798337     2.91666525798337
O     4.37499788697506     4.37499788697506     1.45833262899169
O     4.37499788697506     1.45833262899169     4.37499788697506
O     1.45833262899169     4.37499788697506     4.37499788697506
O     4.37499788697506     1.45833262899169     1.45833262899169
O     1.45833262899169     4.37499788697506     1.45833262899169
O     1.45833262899169     1.45833262899169     4.37499788697506