CRYSTAL
# Primitive lattice vectors in Angstrom
PRIMVEC
 3.60293606921981 0.00000000000000 2.08015610943707
 1.20097868973993 3.39688070230258 2.08015610943707
 0.00000000000000 0.00000000000000 4.16031221887414
# Cartesian coordinates in Angstrom.
PRIMCOORD
 3 1
Cs     0.00000000000000     0.00000000000000     0.00000000000000
O     1.20097868973993     0.84922017557565     2.08015610943707
O     3.60293606921981     2.54766052672694     6.24046832831122