CRYSTAL
# Primitive lattice vectors in Angstrom
PRIMVEC
 6.04293927554473 0.00000000000000 0.00000000000000
 -0.00000000000000 6.04293927554473 0.00000000000000
 0.00000000000000 0.00000000000000 6.04293927554473
# Cartesian coordinates in Angstrom.
PRIMCOORD
 10 1
Cs     1.51073481888618     1.51073481888618     1.51073481888618
Cs     4.53220445665855     4.53220445665855     1.51073481888618
Cs     4.53220445665855     1.51073481888618     4.53220445665855
Cs     1.51073481888618     4.53220445665855     4.53220445665855
O     3.02146963777237     0.00000000000000     0.00000000000000
O     0.00000000000000     3.02146963777237     0.00000000000000
O     0.00000000000000     0.00000000000000     3.02146963777237
O     3.02146963777237     3.02146963777237     0.00000000000000
O     3.02146963777237     0.00000000000000     3.02146963777237
O     0.00000000000000     3.02146963777237     3.02146963777237