CRYSTAL
# Primitive lattice vectors in Angstrom
PRIMVEC
 4.11057190112941 0.00000000000000 0.00000000000000
 -0.00000000000000 4.11057190112941 0.00000000000000
 0.00000000000000 0.00000000000000 4.11057190112941
# Cartesian coordinates in Angstrom.
PRIMCOORD
 4 1
Cs     0.00000000000000     0.00000000000000     0.00000000000000
O     2.05528595056470     0.00000000000000     0.00000000000000
O     0.00000000000000     2.05528595056470     0.00000000000000
O     0.00000000000000     0.00000000000000     2.05528595056470