CRYSTAL
# Primitive lattice vectors in Angstrom
PRIMVEC
 4.24007098813812 0.00000000000000 2.44800612638467
 1.41335699604604 3.99757726456641 2.44800612638467
 0.00000000000000 0.00000000000000 4.89601225276933
# Cartesian coordinates in Angstrom.
PRIMCOORD
 3 1
Cs     1.41335699604604     0.99939431614160     2.44800612638467
Cs     4.24007098813812     2.99818294842481     7.34401837915400
O     0.00000000000000     0.00000000000000     0.00000000000000