CRYSTAL
# Primitive lattice vectors in Angstrom
PRIMVEC
 3.44402060091936 0.00000000000000 1.98840622103541
 1.14800686697312 3.24705376194167 1.98840622103541
 0.00000000000000 0.00000000000000 3.97681244207082
# Cartesian coordinates in Angstrom.
PRIMCOORD
 2 1
Cs     0.00000000000000     0.00000000000000     0.00000000000000
O     2.29601373394624     1.62352688097083     3.97681244207082