CRYSTAL
# Primitive lattice vectors in Angstrom
PRIMVEC
 3.05855728241492 0.00000000000000 1.76585887033415
 1.01951909413831 2.88363546005745 1.76585887033415
 0.00000000000000 0.00000000000000 3.53171774066829
# Cartesian coordinates in Angstrom.
PRIMCOORD
 3 1
Cu     1.01951909413831     0.72090886501436     1.76585887033415
Cu     3.05855728241492     2.16272659504309     5.29757661100244
O     0.00000000000000     0.00000000000000     0.00000000000000