CRYSTAL
# Primitive lattice vectors in Angstrom
PRIMVEC
 4.57277963911093 0.00000000000000 0.00000000000000
 -0.00000000000000 4.57277963911093 0.00000000000000
 0.00000000000000 0.00000000000000 4.57277963911093
# Cartesian coordinates in Angstrom.
PRIMCOORD
 10 1
Cu     1.14319490977773     1.14319490977773     1.14319490977773
Cu     3.42958472933320     3.42958472933320     1.14319490977773
Cu     3.42958472933320     1.14319490977773     3.42958472933320
Cu     1.14319490977773     3.42958472933320     3.42958472933320
O     2.28638981955547     0.00000000000000     0.00000000000000
O     0.00000000000000     2.28638981955547     0.00000000000000
O     0.00000000000000     0.00000000000000     2.28638981955547
O     2.28638981955547     2.28638981955547     0.00000000000000
O     2.28638981955547     0.00000000000000     2.28638981955547
O     0.00000000000000     2.28638981955547     2.28638981955547