CRYSTAL
# Primitive lattice vectors in Angstrom
PRIMVEC
 2.52448552795295 0.00000000000000 1.45751239912895
 0.84149517598432 2.38010778109711 1.45751239912895
 0.00000000000000 0.00000000000000 2.91502479825789
# Cartesian coordinates in Angstrom.
PRIMCOORD
 2 1
Cu     0.00000000000000     0.00000000000000     0.00000000000000
O     1.68299035196863     1.19005389054855     2.91502479825789