CRYSTAL
# Primitive lattice vectors in Angstrom
PRIMVEC
 4.89140718972008 0.00000000000000 0.00000000000000
 -0.00000000000000 4.89140718972008 0.00000000000000
 0.00000000000000 0.00000000000000 4.89140718972008
# Cartesian coordinates in Angstrom.
PRIMCOORD
 14 1
Cu     0.00000000000000     0.00000000000000     0.00000000000000
Cu     2.44570359486004     2.44570359486004     0.00000000000000
Cu     2.44570359486004     0.00000000000000     2.44570359486004
Cu     0.00000000000000     2.44570359486004     2.44570359486004
O     2.44570359486004     0.00000000000000     0.00000000000000
O     0.00000000000000     2.44570359486004     0.00000000000000
O     0.00000000000000     0.00000000000000     2.44570359486004
O     2.44570359486004     2.44570359486004     2.44570359486004
O     3.66855539229006     3.66855539229006     1.22285179743002
O     3.66855539229006     1.22285179743002     3.66855539229006
O     1.22285179743002     3.66855539229006     3.66855539229006
O     3.66855539229006     1.22285179743002     1.22285179743002
O     1.22285179743002     3.66855539229006     1.22285179743002
O     1.22285179743002     1.22285179743002     3.66855539229006