CRYSTAL
# Primitive lattice vectors in Angstrom
PRIMVEC
 2.87851899136209 0.00000000000000 1.66191371453035
 0.95950633045403 2.71389373142186 1.66191371453035
 0.00000000000000 0.00000000000000 3.32382742906070
# Cartesian coordinates in Angstrom.
PRIMCOORD
 3 1
Cu     0.00000000000000     0.00000000000000     0.00000000000000
O     0.95950633045403     0.67847343285546     1.66191371453035
O     2.87851899136209     2.03542029856639     4.98574114359106