CRYSTAL
# Primitive lattice vectors in Angstrom
PRIMVEC
 3.62657549111426 0.00000000000000 0.00000000000000
 -0.00000000000000 3.62657549111426 0.00000000000000
 0.00000000000000 0.00000000000000 3.62657549111426
# Cartesian coordinates in Angstrom.
PRIMCOORD
 4 1
Cu     0.00000000000000     0.00000000000000     0.00000000000000
O     1.81328774555712     0.00000000000000     0.00000000000000
O     0.00000000000000     1.81328774555712     0.00000000000000
O     0.00000000000000     0.00000000000000     1.81328774555712