CRYSTAL
# Primitive lattice vectors in Angstrom
PRIMVEC
 4.04172519597805 0.00000000000000 0.00000000000000
 -0.00000000000000 4.04172519597805 0.00000000000000
 0.00000000000000 0.00000000000000 4.04172519597805
# Cartesian coordinates in Angstrom.
PRIMCOORD
 4 1
Dy     0.00000000000000     0.00000000000000     0.00000000000000
O     2.02086259798902     0.00000000000000     0.00000000000000
O     0.00000000000000     2.02086259798902     0.00000000000000
O     0.00000000000000     0.00000000000000     2.02086259798902