CRYSTAL
# Primitive lattice vectors in Angstrom
PRIMVEC
 3.15460894902722 0.00000000000000 1.82131432590886
 1.05153631634240 2.97419383979855 1.82131432590886
 0.00000000000000 0.00000000000000 3.64262865181773
# Cartesian coordinates in Angstrom.
PRIMCOORD
 3 1
Dy     0.00000000000000     0.00000000000000     0.00000000000000
O     1.05153631634240     0.74354845994964     1.82131432590886
O     3.15460894902722     2.23064537984891     5.46394297772660