CRYSTAL
# Primitive lattice vectors in Angstrom
PRIMVEC
 3.46289849194684 0.00000000000000 1.99930537650186
 1.15429949731561 3.26485200828837 1.99930537650186
 0.00000000000000 0.00000000000000 3.99861075300372
# Cartesian coordinates in Angstrom.
PRIMCOORD
 3 1
Dy     1.15429949731561     0.81621300207209     1.99930537650186
Dy     3.46289849194684     2.44863900621628     5.99791612950558
O     0.00000000000000     0.00000000000000     0.00000000000000