CRYSTAL
# Primitive lattice vectors in Angstrom
PRIMVEC
 2.86896604209719 0.00000000000000 1.65639831670070
 0.95632201403240 2.70488712448114 1.65639831670070
 0.00000000000000 0.00000000000000 3.31279663340141
# Cartesian coordinates in Angstrom.
PRIMCOORD
 2 1
Dy     0.00000000000000     0.00000000000000     0.00000000000000
O     1.91264402806479     1.35244356224056     3.31279663340141