CRYSTAL
# Primitive lattice vectors in Angstrom
PRIMVEC
 5.15083411841610 0.00000000000000 0.00000000000000
 -0.00000000000000 5.15083411841610 0.00000000000000
 0.00000000000000 0.00000000000000 5.15083411841610
# Cartesian coordinates in Angstrom.
PRIMCOORD
 10 1
Dy     1.28770852960402     1.28770852960402     1.28770852960402
Dy     3.86312558881208     3.86312558881208     1.28770852960402
Dy     3.86312558881208     1.28770852960402     3.86312558881208
Dy     1.28770852960402     3.86312558881208     3.86312558881208
O     2.57541705920805     0.00000000000000     0.00000000000000
O     0.00000000000000     2.57541705920805     0.00000000000000
O     0.00000000000000     0.00000000000000     2.57541705920805
O     2.57541705920805     2.57541705920805     0.00000000000000
O     2.57541705920805     0.00000000000000     2.57541705920805
O     0.00000000000000     2.57541705920805     2.57541705920805