CRYSTAL
# Primitive lattice vectors in Angstrom
PRIMVEC
 5.22249683972274 0.00000000000000 0.00000000000000
 -0.00000000000000 5.22249683972274 0.00000000000000
 0.00000000000000 0.00000000000000 5.22249683972274
# Cartesian coordinates in Angstrom.
PRIMCOORD
 14 1
Dy     0.00000000000000     0.00000000000000     0.00000000000000
Dy     2.61124841986137     2.61124841986137     0.00000000000000
Dy     2.61124841986137     0.00000000000000     2.61124841986137
Dy     0.00000000000000     2.61124841986137     2.61124841986137
O     2.61124841986137     0.00000000000000     0.00000000000000
O     0.00000000000000     2.61124841986137     0.00000000000000
O     0.00000000000000     0.00000000000000     2.61124841986137
O     2.61124841986137     2.61124841986137     2.61124841986137
O     3.91687262979205     3.91687262979205     1.30562420993068
O     3.91687262979205     1.30562420993068     3.91687262979205
O     1.30562420993068     3.91687262979205     3.91687262979205
O     3.91687262979205     1.30562420993068     1.30562420993068
O     1.30562420993068     3.91687262979205     1.30562420993068
O     1.30562420993068     1.30562420993068     3.91687262979205