CRYSTAL
# Primitive lattice vectors in Angstrom
PRIMVEC
 3.48821937993520 0.00000000000000 2.01392439799806
 1.16273979331173 3.28872477042469 2.01392439799806
 0.00000000000000 0.00000000000000 4.02784879599612
# Cartesian coordinates in Angstrom.
PRIMCOORD
 3 1
Er     1.16273979331173     0.82218119260617     2.01392439799806
Er     3.48821937993520     2.46654357781852     6.04177319399418
O     0.00000000000000     0.00000000000000     0.00000000000000