CRYSTAL
# Primitive lattice vectors in Angstrom
PRIMVEC
 2.85958354546552 0.00000000000000 1.65098132974474
 0.95319451515517 2.69604122182419 1.65098132974474
 0.00000000000000 0.00000000000000 3.30196265948948
# Cartesian coordinates in Angstrom.
PRIMCOORD
 2 1
Er     0.00000000000000     0.00000000000000     0.00000000000000
O     1.90638903031035     1.34802061091209     3.30196265948948