CRYSTAL
# Primitive lattice vectors in Angstrom
PRIMVEC
 5.22369309899108 0.00000000000000 0.00000000000000
 -0.00000000000000 5.22369309899108 0.00000000000000
 0.00000000000000 0.00000000000000 5.22369309899108
# Cartesian coordinates in Angstrom.
PRIMCOORD
 14 1
Er     0.00000000000000     0.00000000000000     0.00000000000000
Er     2.61184654949554     2.61184654949554     0.00000000000000
Er     2.61184654949554     0.00000000000000     2.61184654949554
Er     0.00000000000000     2.61184654949554     2.61184654949554
O     2.61184654949554     0.00000000000000     0.00000000000000
O     0.00000000000000     2.61184654949554     0.00000000000000
O     0.00000000000000     0.00000000000000     2.61184654949554
O     2.61184654949554     2.61184654949554     2.61184654949554
O     3.91776982424331     3.91776982424331     1.30592327474777
O     3.91776982424331     1.30592327474777     3.91776982424331
O     1.30592327474777     3.91776982424331     3.91776982424331
O     3.91776982424331     1.30592327474777     1.30592327474777
O     1.30592327474777     3.91776982424331     1.30592327474777
O     1.30592327474777     1.30592327474777     3.91776982424331