CRYSTAL
# Primitive lattice vectors in Angstrom
PRIMVEC
 5.13744352448556 0.00000000000000 0.00000000000000
 -0.00000000000000 5.13744352448556 0.00000000000000
 0.00000000000000 0.00000000000000 5.13744352448556
# Cartesian coordinates in Angstrom.
PRIMCOORD
 10 1
Er     1.28436088112139     1.28436088112139     1.28436088112139
Er     3.85308264336417     3.85308264336417     1.28436088112139
Er     3.85308264336417     1.28436088112139     3.85308264336417
Er     1.28436088112139     3.85308264336417     3.85308264336417
O     2.56872176224278     0.00000000000000     0.00000000000000
O     0.00000000000000     2.56872176224278     0.00000000000000
O     0.00000000000000     0.00000000000000     2.56872176224278
O     2.56872176224278     2.56872176224278     0.00000000000000
O     2.56872176224278     0.00000000000000     2.56872176224278
O     0.00000000000000     2.56872176224278     2.56872176224278