CRYSTAL
# Primitive lattice vectors in Angstrom
PRIMVEC
 3.15102188031897 0.00000000000000 1.81924333082456
 1.05034062677299 2.97081191898764 1.81924333082456
 0.00000000000000 0.00000000000000 3.63848666164911
# Cartesian coordinates in Angstrom.
PRIMCOORD
 3 1
Er     0.00000000000000     0.00000000000000     0.00000000000000
O     1.05034062677299     0.74270297974691     1.81924333082456
O     3.15102188031897     2.22810893924073     5.45772999247367