CRYSTAL
# Primitive lattice vectors in Angstrom
PRIMVEC
 4.06267258057952 0.00000000000000 0.00000000000000
 -0.00000000000000 4.06267258057952 0.00000000000000
 0.00000000000000 0.00000000000000 4.06267258057952
# Cartesian coordinates in Angstrom.
PRIMCOORD
 4 1
Er     0.00000000000000     0.00000000000000     0.00000000000000
O     2.03133629028975     0.00000000000000     0.00000000000000
O     0.00000000000000     2.03133629028975     0.00000000000000
O     0.00000000000000     0.00000000000000     2.03133629028975