CRYSTAL
# Primitive lattice vectors in Angstrom
PRIMVEC
 3.99626797891773 0.00000000000000 0.00000000000000
 -0.00000000000000 3.99626797891773 0.00000000000000
 0.00000000000000 0.00000000000000 3.99626797891773
# Cartesian coordinates in Angstrom.
PRIMCOORD
 4 1
Es     0.00000000000000     0.00000000000000     0.00000000000000
O     1.99813398945886     0.00000000000000     0.00000000000000
O     0.00000000000000     1.99813398945886     0.00000000000000
O     0.00000000000000     0.00000000000000     1.99813398945886