CRYSTAL
# Primitive lattice vectors in Angstrom
PRIMVEC
 2.86827910461655 0.00000000000000 1.65600171316134
 0.95609303487218 2.70423947361338 1.65600171316134
 0.00000000000000 0.00000000000000 3.31200342632268
# Cartesian coordinates in Angstrom.
PRIMCOORD
 2 1
Es     0.00000000000000     0.00000000000000     0.00000000000000
O     1.91218606974436     1.35211973680669     3.31200342632268