CRYSTAL
# Primitive lattice vectors in Angstrom
PRIMVEC
 3.15608546942096 0.00000000000000 1.82216679535565
 1.05202848980698 2.97558591657585 1.82216679535565
 0.00000000000000 0.00000000000000 3.64433359071131
# Cartesian coordinates in Angstrom.
PRIMCOORD
 3 1
Es     0.00000000000000     0.00000000000000     0.00000000000000
O     1.05202848980698     0.74389647914396     1.82216679535565
O     3.15608546942096     2.23168943743189     5.46650038606697