CRYSTAL
# Primitive lattice vectors in Angstrom
PRIMVEC
 5.12679771819870 0.00000000000000 0.00000000000000
 -0.00000000000000 5.12679771819870 0.00000000000000
 0.00000000000000 0.00000000000000 5.12679771819870
# Cartesian coordinates in Angstrom.
PRIMCOORD
 10 1
Es     1.28169942954967     1.28169942954967     1.28169942954967
Es     3.84509828864903     3.84509828864903     1.28169942954967
Es     3.84509828864903     1.28169942954967     3.84509828864903
Es     1.28169942954967     3.84509828864903     3.84509828864903
O     2.56339885909935     0.00000000000000     0.00000000000000
O     0.00000000000000     2.56339885909935     0.00000000000000
O     0.00000000000000     0.00000000000000     2.56339885909935
O     2.56339885909935     2.56339885909935     0.00000000000000
O     2.56339885909935     0.00000000000000     2.56339885909935
O     0.00000000000000     2.56339885909935     2.56339885909935