CRYSTAL
# Primitive lattice vectors in Angstrom
PRIMVEC
 5.19369404520504 0.00000000000000 0.00000000000000
 -0.00000000000000 5.19369404520504 0.00000000000000
 0.00000000000000 0.00000000000000 5.19369404520504
# Cartesian coordinates in Angstrom.
PRIMCOORD
 14 1
Es     0.00000000000000     0.00000000000000     0.00000000000000
Es     2.59684702260252     2.59684702260252     0.00000000000000
Es     2.59684702260252     0.00000000000000     2.59684702260252
Es     0.00000000000000     2.59684702260252     2.59684702260252
O     2.59684702260252     0.00000000000000     0.00000000000000
O     0.00000000000000     2.59684702260252     0.00000000000000
O     0.00000000000000     0.00000000000000     2.59684702260252
O     2.59684702260252     2.59684702260252     2.59684702260252
O     3.89527053390378     3.89527053390378     1.29842351130126
O     3.89527053390378     1.29842351130126     3.89527053390378
O     1.29842351130126     3.89527053390378     3.89527053390378
O     3.89527053390378     1.29842351130126     1.29842351130126
O     1.29842351130126     3.89527053390378     1.29842351130126
O     1.29842351130126     1.29842351130126     3.89527053390378