CRYSTAL
# Primitive lattice vectors in Angstrom
PRIMVEC
 3.44791012664937 0.00000000000000 1.99065183976265
 1.14930337554979 3.25072084196738 1.99065183976265
 0.00000000000000 0.00000000000000 3.98130367952530
# Cartesian coordinates in Angstrom.
PRIMCOORD
 3 1
Es     1.14930337554979     0.81268021049184     1.99065183976265
Es     3.44791012664937     2.43804063147554     5.97195551928796
O     0.00000000000000     0.00000000000000     0.00000000000000