CRYSTAL
# Primitive lattice vectors in Angstrom
PRIMVEC
 5.24290567987662 0.00000000000000 0.00000000000000
 -0.00000000000000 5.24290567987662 0.00000000000000
 0.00000000000000 0.00000000000000 5.24290567987662
# Cartesian coordinates in Angstrom.
PRIMCOORD
 14 1
Eu     0.00000000000000     0.00000000000000     0.00000000000000
Eu     2.62145283993831     2.62145283993831     0.00000000000000
Eu     2.62145283993831     0.00000000000000     2.62145283993831
Eu     0.00000000000000     2.62145283993831     2.62145283993831
O     2.62145283993831     0.00000000000000     0.00000000000000
O     0.00000000000000     2.62145283993831     0.00000000000000
O     0.00000000000000     0.00000000000000     2.62145283993831
O     2.62145283993831     2.62145283993831     2.62145283993831
O     3.93217925990746     3.93217925990746     1.31072641996915
O     3.93217925990746     1.31072641996915     3.93217925990746
O     1.31072641996915     3.93217925990746     3.93217925990746
O     3.93217925990746     1.31072641996915     1.31072641996915
O     1.31072641996915     3.93217925990746     1.31072641996915
O     1.31072641996915     1.31072641996915     3.93217925990746