CRYSTAL
# Primitive lattice vectors in Angstrom
PRIMVEC
 3.44531082784396 0.00000000000000 1.98915113389765
 1.14843694261465 3.24827019955187 1.98915113389765
 0.00000000000000 0.00000000000000 3.97830226779529
# Cartesian coordinates in Angstrom.
PRIMCOORD
 3 1
Eu     1.14843694261465     0.81206754988797     1.98915113389765
Eu     3.44531082784396     2.43620264966391     5.96745340169293
O     0.00000000000000     0.00000000000000     0.00000000000000