CRYSTAL
# Primitive lattice vectors in Angstrom
PRIMVEC
 5.19837638199620 0.00000000000000 0.00000000000000
 -0.00000000000000 5.19837638199620 0.00000000000000
 0.00000000000000 0.00000000000000 5.19837638199620
# Cartesian coordinates in Angstrom.
PRIMCOORD
 10 1
Eu     1.29959409549905     1.29959409549905     1.29959409549905
Eu     3.89878228649715     3.89878228649715     1.29959409549905
Eu     3.89878228649715     1.29959409549905     3.89878228649715
Eu     1.29959409549905     3.89878228649715     3.89878228649715
O     2.59918819099810     0.00000000000000     0.00000000000000
O     0.00000000000000     2.59918819099810     0.00000000000000
O     0.00000000000000     0.00000000000000     2.59918819099810
O     2.59918819099810     2.59918819099810     0.00000000000000
O     2.59918819099810     0.00000000000000     2.59918819099810
O     0.00000000000000     2.59918819099810     2.59918819099810