CRYSTAL
# Primitive lattice vectors in Angstrom
PRIMVEC
 3.17920573902250 0.00000000000000 1.83551528923384
 1.05973524634083 2.99738391580000 1.83551528923384
 0.00000000000000 0.00000000000000 3.67103057846768
# Cartesian coordinates in Angstrom.
PRIMCOORD
 3 1
Eu     0.00000000000000     0.00000000000000     0.00000000000000
O     1.05973524634083     0.74934597895000     1.83551528923384
O     3.17920573902250     2.24803793685000     5.50654586770153