CRYSTAL
# Primitive lattice vectors in Angstrom
PRIMVEC
 2.89003647748629 0.00000000000000 1.66856333824455
 0.96334549249543 2.72475252147605 1.66856333824455
 0.00000000000000 0.00000000000000 3.33712667648909
# Cartesian coordinates in Angstrom.
PRIMCOORD
 2 1
Eu     0.00000000000000     0.00000000000000     0.00000000000000
O     1.92669098499086     1.36237626073802     3.33712667648909