CRYSTAL
# Primitive lattice vectors in Angstrom
PRIMVEC
 2.92758771401934 0.00000000000000 1.69024355476531
 0.97586257133978 2.76015616680200 1.69024355476531
 0.00000000000000 0.00000000000000 3.38048710953062
# Cartesian coordinates in Angstrom.
PRIMCOORD
 3 1
O     0.00000000000000     0.00000000000000     0.00000000000000
F     0.97586257133978     0.69003904170050     1.69024355476531
F     2.92758771401934     2.07011712510150     5.07073066429593