CRYSTAL
# Primitive lattice vectors in Angstrom
PRIMVEC
 4.77537531836547 0.00000000000000 0.00000000000000
 -0.00000000000000 4.77537531836547 0.00000000000000
 0.00000000000000 0.00000000000000 4.77537531836547
# Cartesian coordinates in Angstrom.
PRIMCOORD
 14 1
O     2.38768765918274     0.00000000000000     0.00000000000000
O     0.00000000000000     2.38768765918274     0.00000000000000
O     0.00000000000000     0.00000000000000     2.38768765918274
O     2.38768765918274     2.38768765918274     2.38768765918274
O     3.58153148877411     3.58153148877411     1.19384382959137
O     3.58153148877411     1.19384382959137     3.58153148877411
O     1.19384382959137     3.58153148877411     3.58153148877411
O     3.58153148877411     1.19384382959137     1.19384382959137
O     1.19384382959137     3.58153148877411     1.19384382959137
O     1.19384382959137     1.19384382959137     3.58153148877411
F     0.00000000000000     0.00000000000000     0.00000000000000
F     2.38768765918274     2.38768765918274     0.00000000000000
F     2.38768765918274     0.00000000000000     2.38768765918274
F     0.00000000000000     2.38768765918274     2.38768765918274