CRYSTAL
# Primitive lattice vectors in Angstrom
PRIMVEC
 4.64685458098840 0.00000000000000 0.00000000000000
 -0.00000000000000 4.64685458098840 0.00000000000000
 0.00000000000000 0.00000000000000 4.64685458098840
# Cartesian coordinates in Angstrom.
PRIMCOORD
 10 1
O     2.32342729049421     0.00000000000000     0.00000000000000
O     0.00000000000000     2.32342729049421     0.00000000000000
O     0.00000000000000     0.00000000000000     2.32342729049421
O     2.32342729049421     2.32342729049421     0.00000000000000
O     2.32342729049421     0.00000000000000     2.32342729049421
O     0.00000000000000     2.32342729049421     2.32342729049421
F     1.16171364524710     1.16171364524710     1.16171364524710
F     3.48514093574130     3.48514093574130     1.16171364524710
F     3.48514093574130     1.16171364524710     3.48514093574130
F     1.16171364524710     3.48514093574130     3.48514093574130