CRYSTAL
# Primitive lattice vectors in Angstrom
PRIMVEC
 2.92313082047645 0.00000000000000 1.68767036607857
 0.97437694015881 2.75595416727239 1.68767036607857
 0.00000000000000 0.00000000000000 3.37534073215713
# Cartesian coordinates in Angstrom.
PRIMCOORD
 3 1
O     0.97437694015881     0.68898854181810     1.68767036607857
O     2.92313082047645     2.06696562545429     5.06301109823571
F     0.00000000000000     0.00000000000000     0.00000000000000