CRYSTAL
# Primitive lattice vectors in Angstrom
PRIMVEC
 3.60669640047217 0.00000000000000 0.00000000000000
 -0.00000000000000 3.60669640047217 0.00000000000000
 0.00000000000000 0.00000000000000 3.60669640047217
# Cartesian coordinates in Angstrom.
PRIMCOORD
 4 1
O     1.80334820023608     0.00000000000000     0.00000000000000
O     0.00000000000000     1.80334820023608     0.00000000000000
O     0.00000000000000     0.00000000000000     1.80334820023608
F     0.00000000000000     0.00000000000000     0.00000000000000