CRYSTAL
# Primitive lattice vectors in Angstrom
PRIMVEC
 2.48712113142644 0.00000000000000 1.43594005473626
 0.82904037714215 2.34488029021865 1.43594005473626
 0.00000000000000 0.00000000000000 2.87188010947251
# Cartesian coordinates in Angstrom.
PRIMCOORD
 2 1
O     1.65808075428429     1.17244014510932     2.87188010947251
F     0.00000000000000     0.00000000000000     0.00000000000000