CRYSTAL
# Primitive lattice vectors in Angstrom
PRIMVEC
 2.91543591811293 0.00000000000000 1.68322771212761
 0.97181197270431 2.74869934374997 1.68322771212761
 0.00000000000000 0.00000000000000 3.36645542425521
# Cartesian coordinates in Angstrom.
PRIMCOORD
 3 1
Fe     0.97181197270431     0.68717483593749     1.68322771212761
Fe     2.91543591811293     2.06152450781248     5.04968313638282
O     0.00000000000000     0.00000000000000     0.00000000000000