CRYSTAL
# Primitive lattice vectors in Angstrom
PRIMVEC
 3.50558932352915 0.00000000000000 0.00000000000000
 -0.00000000000000 3.50558932352915 0.00000000000000
 0.00000000000000 0.00000000000000 3.50558932352915
# Cartesian coordinates in Angstrom.
PRIMCOORD
 4 1
Fe     0.00000000000000     0.00000000000000     0.00000000000000
O     1.75279466176457     0.00000000000000     0.00000000000000
O     0.00000000000000     1.75279466176457     0.00000000000000
O     0.00000000000000     0.00000000000000     1.75279466176457