CRYSTAL
# Primitive lattice vectors in Angstrom
PRIMVEC
 4.74780725377503 0.00000000000000 0.00000000000000
 -0.00000000000000 4.74780725377503 0.00000000000000
 0.00000000000000 0.00000000000000 4.74780725377503
# Cartesian coordinates in Angstrom.
PRIMCOORD
 14 1
Fe     0.00000000000000     0.00000000000000     0.00000000000000
Fe     2.37390362688751     2.37390362688751     0.00000000000000
Fe     2.37390362688751     0.00000000000000     2.37390362688751
Fe     0.00000000000000     2.37390362688751     2.37390362688751
O     2.37390362688751     0.00000000000000     0.00000000000000
O     0.00000000000000     2.37390362688751     0.00000000000000
O     0.00000000000000     0.00000000000000     2.37390362688751
O     2.37390362688751     2.37390362688751     2.37390362688751
O     3.56085544033127     3.56085544033127     1.18695181344376
O     3.56085544033127     1.18695181344376     3.56085544033127
O     1.18695181344376     3.56085544033127     3.56085544033127
O     3.56085544033127     1.18695181344376     1.18695181344376
O     1.18695181344376     3.56085544033127     1.18695181344376
O     1.18695181344376     1.18695181344376     3.56085544033127