CRYSTAL
# Primitive lattice vectors in Angstrom
PRIMVEC
 2.74612001827316 0.00000000000000 1.58547313177703
 0.91537333942438 2.58906678249744 1.58547313177703
 0.00000000000000 0.00000000000000 3.17094626355406
# Cartesian coordinates in Angstrom.
PRIMCOORD
 3 1
Fe     0.00000000000000     0.00000000000000     0.00000000000000
O     0.91537333942438     0.64726669562436     1.58547313177703
O     2.74612001827316     1.94180008687308     4.75641939533109