CRYSTAL
# Primitive lattice vectors in Angstrom
PRIMVEC
 2.43951869273277 0.00000000000000 1.40845677394238
 0.81317289757759 2.30000028061691 1.40845677394238
 0.00000000000000 0.00000000000000 2.81691354788477
# Cartesian coordinates in Angstrom.
PRIMCOORD
 2 1
Fe     0.00000000000000     0.00000000000000     0.00000000000000
O     1.62634579515518     1.15000014030845     2.81691354788477