CRYSTAL
# Primitive lattice vectors in Angstrom
PRIMVEC
 4.38964548321322 0.00000000000000 0.00000000000000
 -0.00000000000000 4.38964548321322 0.00000000000000
 0.00000000000000 0.00000000000000 4.38964548321322
# Cartesian coordinates in Angstrom.
PRIMCOORD
 10 1
Fe     1.09741137080330     1.09741137080330     1.09741137080330
Fe     3.29223411240991     3.29223411240991     1.09741137080330
Fe     3.29223411240991     1.09741137080330     3.29223411240991
Fe     1.09741137080330     3.29223411240991     3.29223411240991
O     2.19482274160661     0.00000000000000     0.00000000000000
O     0.00000000000000     2.19482274160661     0.00000000000000
O     0.00000000000000     0.00000000000000     2.19482274160661
O     2.19482274160661     2.19482274160661     0.00000000000000
O     2.19482274160661     0.00000000000000     2.19482274160661
O     0.00000000000000     2.19482274160661     2.19482274160661