CRYSTAL
# Primitive lattice vectors in Angstrom
PRIMVEC
 4.02699915067300 0.00000000000000 0.00000000000000
 -0.00000000000000 4.02699915067300 0.00000000000000
 0.00000000000000 0.00000000000000 4.02699915067300
# Cartesian coordinates in Angstrom.
PRIMCOORD
 4 1
Fm     0.00000000000000     0.00000000000000     0.00000000000000
O     2.01349957533649     0.00000000000000     0.00000000000000
O     0.00000000000000     2.01349957533649     0.00000000000000
O     0.00000000000000     0.00000000000000     2.01349957533649