CRYSTAL
# Primitive lattice vectors in Angstrom
PRIMVEC
 2.88998720706992 0.00000000000000 1.66853489195639
 0.96332906902331 2.72470606888202 1.66853489195639
 0.00000000000000 0.00000000000000 3.33706978391279
# Cartesian coordinates in Angstrom.
PRIMCOORD
 2 1
Fm     0.00000000000000     0.00000000000000     0.00000000000000
O     1.92665813804662     1.36235303444101     3.33706978391279