CRYSTAL
# Primitive lattice vectors in Angstrom
PRIMVEC
 5.22530611099442 0.00000000000000 0.00000000000000
 -0.00000000000000 5.22530611099442 0.00000000000000
 0.00000000000000 0.00000000000000 5.22530611099442
# Cartesian coordinates in Angstrom.
PRIMCOORD
 14 1
Fm     0.00000000000000     0.00000000000000     0.00000000000000
Fm     2.61265305549721     2.61265305549721     0.00000000000000
Fm     2.61265305549721     0.00000000000000     2.61265305549721
Fm     0.00000000000000     2.61265305549721     2.61265305549721
O     2.61265305549721     0.00000000000000     0.00000000000000
O     0.00000000000000     2.61265305549721     0.00000000000000
O     0.00000000000000     0.00000000000000     2.61265305549721
O     2.61265305549721     2.61265305549721     2.61265305549721
O     3.91897958324582     3.91897958324582     1.30632652774861
O     3.91897958324582     1.30632652774861     3.91897958324582
O     1.30632652774861     3.91897958324582     3.91897958324582
O     3.91897958324582     1.30632652774861     1.30632652774861
O     1.30632652774861     3.91897958324582     1.30632652774861
O     1.30632652774861     1.30632652774861     3.91897958324582