CRYSTAL
# Primitive lattice vectors in Angstrom
PRIMVEC
 5.15758533619527 0.00000000000000 0.00000000000000
 -0.00000000000000 5.15758533619527 0.00000000000000
 0.00000000000000 0.00000000000000 5.15758533619527
# Cartesian coordinates in Angstrom.
PRIMCOORD
 10 1
Fm     1.28939633404882     1.28939633404882     1.28939633404882
Fm     3.86818900214645     3.86818900214645     1.28939633404882
Fm     3.86818900214645     1.28939633404882     3.86818900214645
Fm     1.28939633404882     3.86818900214645     3.86818900214645
O     2.57879266809764     0.00000000000000     0.00000000000000
O     0.00000000000000     2.57879266809764     0.00000000000000
O     0.00000000000000     0.00000000000000     2.57879266809764
O     2.57879266809764     2.57879266809764     0.00000000000000
O     2.57879266809764     0.00000000000000     2.57879266809764
O     0.00000000000000     2.57879266809764     2.57879266809764