CRYSTAL
# Primitive lattice vectors in Angstrom
PRIMVEC
 3.17325882927645 0.00000000000000 1.83208183929111
 1.05775294309215 2.99177711552195 1.83208183929111
 0.00000000000000 0.00000000000000 3.66416367858222
# Cartesian coordinates in Angstrom.
PRIMCOORD
 3 1
Fm     0.00000000000000     0.00000000000000     0.00000000000000
O     1.05775294309215     0.74794427888049     1.83208183929111
O     3.17325882927645     2.24383283664146     5.49624551787335