CRYSTAL
# Primitive lattice vectors in Angstrom
PRIMVEC
 3.49639641575874 0.00000000000000 2.01864541183195
 1.16546547191958 3.29643415373246 2.01864541183195
 0.00000000000000 0.00000000000000 4.03729082366390
# Cartesian coordinates in Angstrom.
PRIMCOORD
 3 1
Fm     1.16546547191958     0.82410853843311     2.01864541183195
Fm     3.49639641575874     2.47232561529935     6.05593623549586
O     0.00000000000000     0.00000000000000     0.00000000000000