CRYSTAL
# Primitive lattice vectors in Angstrom
PRIMVEC
 4.20314271129059 0.00000000000000 0.00000000000000
 -0.00000000000000 4.20314271129059 0.00000000000000
 0.00000000000000 0.00000000000000 4.20314271129059
# Cartesian coordinates in Angstrom.
PRIMCOORD
 4 1
Fr     0.00000000000000     0.00000000000000     0.00000000000000
O     2.10157135564529     0.00000000000000     0.00000000000000
O     0.00000000000000     2.10157135564529     0.00000000000000
O     0.00000000000000     0.00000000000000     2.10157135564529