CRYSTAL
# Primitive lattice vectors in Angstrom
PRIMVEC
 3.60509119804615 0.00000000000000 2.08140037364509
 1.20169706601538 3.39891257724583 2.08140037364509
 0.00000000000000 0.00000000000000 4.16280074729019
# Cartesian coordinates in Angstrom.
PRIMCOORD
 3 1
Fr     0.00000000000000     0.00000000000000     0.00000000000000
O     1.20169706601538     0.84972814431146     2.08140037364509
O     3.60509119804615     2.54918443293437     6.24420112093529