CRYSTAL
# Primitive lattice vectors in Angstrom
PRIMVEC
 5.76706243092266 0.00000000000000 0.00000000000000
 -0.00000000000000 5.76706243092266 0.00000000000000
 0.00000000000000 0.00000000000000 5.76706243092266
# Cartesian coordinates in Angstrom.
PRIMCOORD
 14 1
Fr     0.00000000000000     0.00000000000000     0.00000000000000
Fr     2.88353121546133     2.88353121546133     0.00000000000000
Fr     2.88353121546133     0.00000000000000     2.88353121546133
Fr     0.00000000000000     2.88353121546133     2.88353121546133
O     2.88353121546133     0.00000000000000     0.00000000000000
O     0.00000000000000     2.88353121546133     0.00000000000000
O     0.00000000000000     0.00000000000000     2.88353121546133
O     2.88353121546133     2.88353121546133     2.88353121546133
O     4.32529682319200     4.32529682319200     1.44176560773067
O     4.32529682319200     1.44176560773067     4.32529682319200
O     1.44176560773067     4.32529682319200     4.32529682319200
O     4.32529682319200     1.44176560773067     1.44176560773067
O     1.44176560773067     4.32529682319200     1.44176560773067
O     1.44176560773067     1.44176560773067     4.32529682319200