CRYSTAL
# Primitive lattice vectors in Angstrom
PRIMVEC
 4.39310697970357 0.00000000000000 2.53636149731068
 1.46436899323452 4.14186098110180 2.53636149731068
 0.00000000000000 0.00000000000000 5.07272299462136
# Cartesian coordinates in Angstrom.
PRIMCOORD
 3 1
Fr     1.46436899323452     1.03546524527545     2.53636149731068
Fr     4.39310697970357     3.10639573582635     7.60908449193205
O     0.00000000000000     0.00000000000000     0.00000000000000