CRYSTAL
# Primitive lattice vectors in Angstrom
PRIMVEC
 3.51412037886580 0.00000000000000 2.02887834670291
 1.17137345962193 3.31314446640246 2.02887834670291
 0.00000000000000 0.00000000000000 4.05775669340583
# Cartesian coordinates in Angstrom.
PRIMCOORD
 2 1
Fr     0.00000000000000     0.00000000000000     0.00000000000000
O     2.34274691924386     1.65657223320122     4.05775669340583