CRYSTAL
# Primitive lattice vectors in Angstrom
PRIMVEC
 6.03743986050590 0.00000000000000 0.00000000000000
 -0.00000000000000 6.03743986050590 0.00000000000000
 0.00000000000000 0.00000000000000 6.03743986050590
# Cartesian coordinates in Angstrom.
PRIMCOORD
 10 1
Fr     1.50935996512647     1.50935996512647     1.50935996512647
Fr     4.52807989537943     4.52807989537943     1.50935996512647
Fr     4.52807989537943     1.50935996512647     4.52807989537943
Fr     1.50935996512647     4.52807989537943     4.52807989537943
O     3.01871993025295     0.00000000000000     0.00000000000000
O     0.00000000000000     3.01871993025295     0.00000000000000
O     0.00000000000000     0.00000000000000     3.01871993025295
O     3.01871993025295     3.01871993025295     0.00000000000000
O     3.01871993025295     0.00000000000000     3.01871993025295
O     0.00000000000000     3.01871993025295     3.01871993025295