CRYSTAL
# Primitive lattice vectors in Angstrom
PRIMVEC
 2.74730650514942 0.00000000000000 1.58615815029442
 0.91576883504981 2.59018541305209 1.58615815029442
 0.00000000000000 0.00000000000000 3.17231630058885
# Cartesian coordinates in Angstrom.
PRIMCOORD
 2 1
Ga     0.00000000000000     0.00000000000000     0.00000000000000
O     1.83153767009961     1.29509270652604     3.17231630058885