CRYSTAL
# Primitive lattice vectors in Angstrom
PRIMVEC
 3.52607031907252 0.00000000000000 2.03577764789807
 1.17535677302417 3.32441097807572 2.03577764789807
 0.00000000000000 0.00000000000000 4.07155529579614
# Cartesian coordinates in Angstrom.
PRIMCOORD
 3 1
Ga     1.17535677302417     0.83110274451893     2.03577764789807
Ga     3.52607031907252     2.49330823355680     6.10733294369421
O     0.00000000000000     0.00000000000000     0.00000000000000