CRYSTAL
# Primitive lattice vectors in Angstrom
PRIMVEC
 4.99995177617319 0.00000000000000 0.00000000000000
 -0.00000000000000 4.99995177617319 0.00000000000000
 0.00000000000000 0.00000000000000 4.99995177617319
# Cartesian coordinates in Angstrom.
PRIMCOORD
 14 1
Ga     0.00000000000000     0.00000000000000     0.00000000000000
Ga     2.49997588808660     2.49997588808660     0.00000000000000
Ga     2.49997588808660     0.00000000000000     2.49997588808660
Ga     0.00000000000000     2.49997588808660     2.49997588808660
O     2.49997588808660     0.00000000000000     0.00000000000000
O     0.00000000000000     2.49997588808660     0.00000000000000
O     0.00000000000000     0.00000000000000     2.49997588808660
O     2.49997588808660     2.49997588808660     2.49997588808660
O     3.74996383212989     3.74996383212989     1.24998794404330
O     3.74996383212989     1.24998794404330     3.74996383212989
O     1.24998794404330     3.74996383212989     3.74996383212989
O     3.74996383212989     1.24998794404330     1.24998794404330
O     1.24998794404330     3.74996383212989     1.24998794404330
O     1.24998794404330     1.24998794404330     3.74996383212989