CRYSTAL
# Primitive lattice vectors in Angstrom
PRIMVEC
 4.69764520160661 0.00000000000000 0.00000000000000
 -0.00000000000000 4.69764520160661 0.00000000000000
 0.00000000000000 0.00000000000000 4.69764520160661
# Cartesian coordinates in Angstrom.
PRIMCOORD
 10 1
Ga     1.17441130040165     1.17441130040165     1.17441130040165
Ga     3.52323390120496     3.52323390120496     1.17441130040165
Ga     3.52323390120496     1.17441130040165     3.52323390120496
Ga     1.17441130040165     3.52323390120496     3.52323390120496
O     2.34882260080331     0.00000000000000     0.00000000000000
O     0.00000000000000     2.34882260080331     0.00000000000000
O     0.00000000000000     0.00000000000000     2.34882260080331
O     2.34882260080331     2.34882260080331     0.00000000000000
O     2.34882260080331     0.00000000000000     2.34882260080331
O     0.00000000000000     2.34882260080331     2.34882260080331