CRYSTAL
# Primitive lattice vectors in Angstrom
PRIMVEC
 3.75650245594364 0.00000000000000 0.00000000000000
 -0.00000000000000 3.75650245594364 0.00000000000000
 0.00000000000000 0.00000000000000 3.75650245594364
# Cartesian coordinates in Angstrom.
PRIMCOORD
 4 1
Ga     0.00000000000000     0.00000000000000     0.00000000000000
O     1.87825122797182     0.00000000000000     0.00000000000000
O     0.00000000000000     1.87825122797182     0.00000000000000
O     0.00000000000000     0.00000000000000     1.87825122797182