CRYSTAL
# Primitive lattice vectors in Angstrom
PRIMVEC
 2.92719154015797 0.00000000000000 1.69001482367980
 0.97573051338599 2.75978265050346 1.69001482367980
 0.00000000000000 0.00000000000000 3.38002964735959
# Cartesian coordinates in Angstrom.
PRIMCOORD
 3 1
Ga     0.00000000000000     0.00000000000000     0.00000000000000
O     0.97573051338599     0.68994566262586     1.69001482367980
O     2.92719154015797     2.06983698787759     5.07004447103940