CRYSTAL
# Primitive lattice vectors in Angstrom
PRIMVEC
 3.16848984904188 0.00000000000000 1.82932846726893
 1.05616328301396 2.98728087783768 1.82932846726893
 0.00000000000000 0.00000000000000 3.65865693453785
# Cartesian coordinates in Angstrom.
PRIMCOORD
 3 1
Gd     0.00000000000000     0.00000000000000     0.00000000000000
O     1.05616328301396     0.74682021945942     1.82932846726893
O     3.16848984904188     2.24046065837826     5.48798540180679