CRYSTAL
# Primitive lattice vectors in Angstrom
PRIMVEC
 4.03608224431757 0.00000000000000 0.00000000000000
 -0.00000000000000 4.03608224431757 0.00000000000000
 0.00000000000000 0.00000000000000 4.03608224431757
# Cartesian coordinates in Angstrom.
PRIMCOORD
 4 1
Gd     0.00000000000000     0.00000000000000     0.00000000000000
O     2.01804112215878     0.00000000000000     0.00000000000000
O     0.00000000000000     2.01804112215878     0.00000000000000
O     0.00000000000000     0.00000000000000     2.01804112215878