CRYSTAL
# Primitive lattice vectors in Angstrom
PRIMVEC
 2.88185043395388 0.00000000000000 1.66383712380751
 0.96061681131796 2.71703464561892 1.66383712380751
 0.00000000000000 0.00000000000000 3.32767424761503
# Cartesian coordinates in Angstrom.
PRIMCOORD
 2 1
Gd     0.00000000000000     0.00000000000000     0.00000000000000
O     1.92123362263592     1.35851732280945     3.32767424761503