CRYSTAL
# Primitive lattice vectors in Angstrom
PRIMVEC
 5.23410248267615 0.00000000000000 0.00000000000000
 -0.00000000000000 5.23410248267615 0.00000000000000
 0.00000000000000 0.00000000000000 5.23410248267615
# Cartesian coordinates in Angstrom.
PRIMCOORD
 14 1
Gd     0.00000000000000     0.00000000000000     0.00000000000000
Gd     2.61705124133807     2.61705124133807     0.00000000000000
Gd     2.61705124133807     0.00000000000000     2.61705124133807
Gd     0.00000000000000     2.61705124133807     2.61705124133807
O     2.61705124133807     0.00000000000000     0.00000000000000
O     0.00000000000000     2.61705124133807     0.00000000000000
O     0.00000000000000     0.00000000000000     2.61705124133807
O     2.61705124133807     2.61705124133807     2.61705124133807
O     3.92557686200711     3.92557686200711     1.30852562066904
O     3.92557686200711     1.30852562066904     3.92557686200711
O     1.30852562066904     3.92557686200711     3.92557686200711
O     3.92557686200711     1.30852562066904     1.30852562066904
O     1.30852562066904     3.92557686200711     1.30852562066904
O     1.30852562066904     1.30852562066904     3.92557686200711