CRYSTAL
# Primitive lattice vectors in Angstrom
PRIMVEC
 5.18030689448026 0.00000000000000 0.00000000000000
 -0.00000000000000 5.18030689448026 0.00000000000000
 0.00000000000000 0.00000000000000 5.18030689448026
# Cartesian coordinates in Angstrom.
PRIMCOORD
 10 1
Gd     1.29507672362006     1.29507672362006     1.29507672362006
Gd     3.88523017086019     3.88523017086019     1.29507672362006
Gd     3.88523017086019     1.29507672362006     3.88523017086019
Gd     1.29507672362006     3.88523017086019     3.88523017086019
O     2.59015344724013     0.00000000000000     0.00000000000000
O     0.00000000000000     2.59015344724013     0.00000000000000
O     0.00000000000000     0.00000000000000     2.59015344724013
O     2.59015344724013     2.59015344724013     0.00000000000000
O     2.59015344724013     0.00000000000000     2.59015344724013
O     0.00000000000000     2.59015344724013     2.59015344724013