CRYSTAL
# Primitive lattice vectors in Angstrom
PRIMVEC
 3.44825546621331 0.00000000000000 1.99085122165285
 1.14941848873777 3.25104643123068 1.99085122165285
 0.00000000000000 0.00000000000000 3.98170244330571
# Cartesian coordinates in Angstrom.
PRIMCOORD
 3 1
Gd     1.14941848873777     0.81276160780767     1.99085122165285
Gd     3.44825546621331     2.43828482342301     5.97255366495856
O     0.00000000000000     0.00000000000000     0.00000000000000