CRYSTAL
# Primitive lattice vectors in Angstrom
PRIMVEC
 5.03531816107974 0.00000000000000 0.00000000000000
 -0.00000000000000 5.03531816107974 0.00000000000000
 0.00000000000000 0.00000000000000 5.03531816107974
# Cartesian coordinates in Angstrom.
PRIMCOORD
 14 1
Ge     0.00000000000000     0.00000000000000     0.00000000000000
Ge     2.51765908053987     2.51765908053987     0.00000000000000
Ge     2.51765908053987     0.00000000000000     2.51765908053987
Ge     0.00000000000000     2.51765908053987     2.51765908053987
O     2.51765908053987     0.00000000000000     0.00000000000000
O     0.00000000000000     2.51765908053987     0.00000000000000
O     0.00000000000000     0.00000000000000     2.51765908053987
O     2.51765908053987     2.51765908053987     2.51765908053987
O     3.77648862080980     3.77648862080980     1.25882954026993
O     3.77648862080980     1.25882954026993     3.77648862080980
O     1.25882954026993     3.77648862080980     3.77648862080980
O     3.77648862080980     1.25882954026993     1.25882954026993
O     1.25882954026993     3.77648862080980     1.25882954026993
O     1.25882954026993     1.25882954026993     3.77648862080980