CRYSTAL
# Primitive lattice vectors in Angstrom
PRIMVEC
 3.47898032878504 0.00000000000000 2.00859022932946
 1.15966010959501 3.28001410946467 2.00859022932946
 0.00000000000000 0.00000000000000 4.01718045865891
# Cartesian coordinates in Angstrom.
PRIMCOORD
 3 1
Ge     1.15966010959501     0.82000352736617     2.00859022932946
Ge     3.47898032878504     2.46001058209851     6.02577068798837
O     0.00000000000000     0.00000000000000     0.00000000000000