CRYSTAL
# Primitive lattice vectors in Angstrom
PRIMVEC
 2.85214848543840 0.00000000000000 1.64668869583664
 0.95071616181280 2.68903138000591 1.64668869583664
 0.00000000000000 0.00000000000000 3.29337739167328
# Cartesian coordinates in Angstrom.
PRIMCOORD
 2 1
Ge     0.00000000000000     0.00000000000000     0.00000000000000
O     1.90143232362560     1.34451569000295     3.29337739167328