CRYSTAL
# Primitive lattice vectors in Angstrom
PRIMVEC
 2.89766221457675 0.00000000000000 1.67296605960649
 0.96588740485892 2.73194213535367 1.67296605960649
 0.00000000000000 0.00000000000000 3.34593211921299
# Cartesian coordinates in Angstrom.
PRIMCOORD
 3 1
Ge     0.00000000000000     0.00000000000000     0.00000000000000
O     0.96588740485892     0.68298553383842     1.67296605960649
O     2.89766221457675     2.04895660151525     5.01889817881949