CRYSTAL
# Primitive lattice vectors in Angstrom
PRIMVEC
 3.63720686650599 0.00000000000000 0.00000000000000
 -0.00000000000000 3.63720686650599 0.00000000000000
 0.00000000000000 0.00000000000000 3.63720686650599
# Cartesian coordinates in Angstrom.
PRIMCOORD
 4 1
Ge     0.00000000000000     0.00000000000000     0.00000000000000
O     1.81860343325299     0.00000000000000     0.00000000000000
O     0.00000000000000     1.81860343325299     0.00000000000000
O     0.00000000000000     0.00000000000000     1.81860343325299