CRYSTAL
# Primitive lattice vectors in Angstrom
PRIMVEC
 4.82723482240230 0.00000000000000 0.00000000000000
 -0.00000000000000 4.82723482240230 0.00000000000000
 0.00000000000000 0.00000000000000 4.82723482240230
# Cartesian coordinates in Angstrom.
PRIMCOORD
 10 1
Ge     1.20680870560057     1.20680870560057     1.20680870560057
Ge     3.62042611680173     3.62042611680173     1.20680870560057
Ge     3.62042611680173     1.20680870560057     3.62042611680173
Ge     1.20680870560057     3.62042611680173     3.62042611680173
O     2.41361741120116     0.00000000000000     0.00000000000000
O     0.00000000000000     2.41361741120116     0.00000000000000
O     0.00000000000000     0.00000000000000     2.41361741120116
O     2.41361741120116     2.41361741120116     0.00000000000000
O     2.41361741120116     0.00000000000000     2.41361741120116
O     0.00000000000000     2.41361741120116     2.41361741120116