CRYSTAL
# Primitive lattice vectors in Angstrom
PRIMVEC
 3.86428156262632 0.00000000000000 0.00000000000000
 -0.00000000000000 3.86428156262632 0.00000000000000
 0.00000000000000 0.00000000000000 3.86428156262632
# Cartesian coordinates in Angstrom.
PRIMCOORD
 10 1
H     0.96607039065658     0.96607039065658     0.96607039065658
H     2.89821117196974     2.89821117196974     0.96607039065658
H     2.89821117196974     0.96607039065658     2.89821117196974
H     0.96607039065658     2.89821117196974     2.89821117196974
O     1.93214078131317     0.00000000000000     0.00000000000000
O     0.00000000000000     1.93214078131317     0.00000000000000
O     0.00000000000000     0.00000000000000     1.93214078131317
O     1.93214078131317     1.93214078131317     0.00000000000000
O     1.93214078131317     0.00000000000000     1.93214078131317
O     0.00000000000000     1.93214078131317     1.93214078131317