CRYSTAL
# Primitive lattice vectors in Angstrom
PRIMVEC
 2.18827638102110 0.00000000000000 1.26340195764383
 0.72942546034036 2.06312675750717 1.26340195764383
 0.00000000000000 0.00000000000000 2.52680391528766
# Cartesian coordinates in Angstrom.
PRIMCOORD
 3 1
H     0.72942546034036     0.51578168937679     1.26340195764383
H     2.18827638102110     1.54734506813038     3.79020587293149
O     0.00000000000000     0.00000000000000     0.00000000000000