CRYSTAL
# Primitive lattice vectors in Angstrom
PRIMVEC
 4.56653243752764 0.00000000000000 0.00000000000000
 -0.00000000000000 4.56653243752764 0.00000000000000
 0.00000000000000 0.00000000000000 4.56653243752764
# Cartesian coordinates in Angstrom.
PRIMCOORD
 14 1
H     0.00000000000000     0.00000000000000     0.00000000000000
H     2.28326621876382     2.28326621876382     0.00000000000000
H     2.28326621876382     0.00000000000000     2.28326621876382
H     0.00000000000000     2.28326621876382     2.28326621876382
O     2.28326621876382     0.00000000000000     0.00000000000000
O     0.00000000000000     2.28326621876382     0.00000000000000
O     0.00000000000000     0.00000000000000     2.28326621876382
O     2.28326621876382     2.28326621876382     2.28326621876382
O     3.42489932814573     3.42489932814573     1.14163310938191
O     3.42489932814573     1.14163310938191     3.42489932814573
O     1.14163310938191     3.42489932814573     3.42489932814573
O     3.42489932814573     1.14163310938191     1.14163310938191
O     1.14163310938191     3.42489932814573     1.14163310938191
O     1.14163310938191     1.14163310938191     3.42489932814573