CRYSTAL
# Primitive lattice vectors in Angstrom
PRIMVEC
 2.53551405888486 0.00000000000000 1.46387972443125
 0.84517135296162 2.39050557977509 1.46387972443125
 0.00000000000000 0.00000000000000 2.92775944886251
# Cartesian coordinates in Angstrom.
PRIMCOORD
 3 1
H     0.00000000000000     0.00000000000000     0.00000000000000
O     0.84517135296162     0.59762639494377     1.46387972443125
O     2.53551405888486     1.79287918483131     4.39163917329377