CRYSTAL
# Primitive lattice vectors in Angstrom
PRIMVEC
 2.04709917647402 0.00000000000000 1.18189326059513
 0.68236639215801 1.93002361259490 1.18189326059513
 0.00000000000000 0.00000000000000 2.36378652119026
# Cartesian coordinates in Angstrom.
PRIMCOORD
 2 1
H     0.00000000000000     0.00000000000000     0.00000000000000
O     1.36473278431601     0.96501180629745     2.36378652119026