CRYSTAL
# Primitive lattice vectors in Angstrom
PRIMVEC
 3.05937079548254 0.00000000000000 0.00000000000000
 -0.00000000000000 3.05937079548254 0.00000000000000
 0.00000000000000 0.00000000000000 3.05937079548254
# Cartesian coordinates in Angstrom.
PRIMCOORD
 4 1
H     0.00000000000000     0.00000000000000     0.00000000000000
O     1.52968539774127     0.00000000000000     0.00000000000000
O     0.00000000000000     1.52968539774127     0.00000000000000
O     0.00000000000000     0.00000000000000     1.52968539774127