CRYSTAL
# Primitive lattice vectors in Angstrom
PRIMVEC
 3.29904431267220 0.00000000000000 0.00000000000000
 -0.00000000000000 3.29904431267220 0.00000000000000
 0.00000000000000 0.00000000000000 3.29904431267220
# Cartesian coordinates in Angstrom.
PRIMCOORD
 4 1
He     0.00000000000000     0.00000000000000     0.00000000000000
O     1.64952215633609     0.00000000000000     0.00000000000000
O     0.00000000000000     1.64952215633609     0.00000000000000
O     0.00000000000000     0.00000000000000     1.64952215633609