CRYSTAL
# Primitive lattice vectors in Angstrom
PRIMVEC
 4.27679827451209 0.00000000000000 0.00000000000000
 -0.00000000000000 4.27679827451209 0.00000000000000
 0.00000000000000 0.00000000000000 4.27679827451209
# Cartesian coordinates in Angstrom.
PRIMCOORD
 10 1
He     1.06919956862802     1.06919956862802     1.06919956862802
He     3.20759870588407     3.20759870588407     1.06919956862802
He     3.20759870588407     1.06919956862802     3.20759870588407
He     1.06919956862802     3.20759870588407     3.20759870588407
O     2.13839913725605     0.00000000000000     0.00000000000000
O     0.00000000000000     2.13839913725605     0.00000000000000
O     0.00000000000000     0.00000000000000     2.13839913725605
O     2.13839913725605     2.13839913725605     0.00000000000000
O     2.13839913725605     0.00000000000000     2.13839913725605
O     0.00000000000000     2.13839913725605     2.13839913725605