CRYSTAL
# Primitive lattice vectors in Angstrom
PRIMVEC
 4.65189442297026 0.00000000000000 0.00000000000000
 -0.00000000000000 4.65189442297026 0.00000000000000
 0.00000000000000 0.00000000000000 4.65189442297026
# Cartesian coordinates in Angstrom.
PRIMCOORD
 14 1
He     0.00000000000000     0.00000000000000     0.00000000000000
He     2.32594721148513     2.32594721148513     0.00000000000000
He     2.32594721148513     0.00000000000000     2.32594721148513
He     0.00000000000000     2.32594721148513     2.32594721148513
O     2.32594721148513     0.00000000000000     0.00000000000000
O     0.00000000000000     2.32594721148513     0.00000000000000
O     0.00000000000000     0.00000000000000     2.32594721148513
O     2.32594721148513     2.32594721148513     2.32594721148513
O     3.48892081722770     3.48892081722770     1.16297360574257
O     3.48892081722770     1.16297360574257     3.48892081722770
O     1.16297360574257     3.48892081722770     3.48892081722770
O     3.48892081722770     1.16297360574257     1.16297360574257
O     1.16297360574257     3.48892081722770     1.16297360574257
O     1.16297360574257     1.16297360574257     3.48892081722770