CRYSTAL
# Primitive lattice vectors in Angstrom
PRIMVEC
 2.54441463518549 0.00000000000000 1.46901847455437
 0.84813821172850 2.39889712358661 1.46901847455437
 0.00000000000000 0.00000000000000 2.93803694910873
# Cartesian coordinates in Angstrom.
PRIMCOORD
 2 1
He     0.00000000000000     0.00000000000000     0.00000000000000
O     1.69627642345700     1.19944856179330     2.93803694910873