CRYSTAL
# Primitive lattice vectors in Angstrom
PRIMVEC
 3.04532201096787 0.00000000000000 1.75821748280139
 1.01510733698929 2.87115712646938 1.75821748280139
 0.00000000000000 0.00000000000000 3.51643496560279
# Cartesian coordinates in Angstrom.
PRIMCOORD
 3 1
He     1.01510733698929     0.71778928161734     1.75821748280139
He     3.04532201096787     2.15336784485204     5.27465244840418
O     0.00000000000000     0.00000000000000     0.00000000000000