CRYSTAL
# Primitive lattice vectors in Angstrom
PRIMVEC
 2.69242454560755 0.00000000000000 1.55447203617927
 0.89747484853585 2.53844220537628 1.55447203617927
 0.00000000000000 0.00000000000000 3.10894407235855
# Cartesian coordinates in Angstrom.
PRIMCOORD
 3 1
He     0.00000000000000     0.00000000000000     0.00000000000000
O     0.89747484853585     0.63461055134407     1.55447203617927
O     2.69242454560755     1.90383165403221     4.66341610853783