CRYSTAL
# Primitive lattice vectors in Angstrom
PRIMVEC
 4.94763525259387 0.00000000000000 0.00000000000000
 -0.00000000000000 4.94763525259387 0.00000000000000
 0.00000000000000 0.00000000000000 4.94763525259387
# Cartesian coordinates in Angstrom.
PRIMCOORD
 10 1
Hf     1.23690881314846     1.23690881314846     1.23690881314846
Hf     3.71072643944540     3.71072643944540     1.23690881314846
Hf     3.71072643944540     1.23690881314846     3.71072643944540
Hf     1.23690881314846     3.71072643944540     3.71072643944540
O     2.47381762629694     0.00000000000000     0.00000000000000
O     0.00000000000000     2.47381762629694     0.00000000000000
O     0.00000000000000     0.00000000000000     2.47381762629694
O     2.47381762629694     2.47381762629694     0.00000000000000
O     2.47381762629694     0.00000000000000     2.47381762629694
O     0.00000000000000     2.47381762629694     2.47381762629694