CRYSTAL
# Primitive lattice vectors in Angstrom
PRIMVEC
 4.06053037645384 0.00000000000000 0.00000000000000
 -0.00000000000000 4.06053037645384 0.00000000000000
 0.00000000000000 0.00000000000000 4.06053037645384
# Cartesian coordinates in Angstrom.
PRIMCOORD
 4 1
Hf     0.00000000000000     0.00000000000000     0.00000000000000
O     2.03026518822691     0.00000000000000     0.00000000000000
O     0.00000000000000     2.03026518822691     0.00000000000000
O     0.00000000000000     0.00000000000000     2.03026518822691