CRYSTAL
# Primitive lattice vectors in Angstrom
PRIMVEC
 5.11276233505453 0.00000000000000 0.00000000000000
 -0.00000000000000 5.11276233505453 0.00000000000000
 0.00000000000000 0.00000000000000 5.11276233505453
# Cartesian coordinates in Angstrom.
PRIMCOORD
 14 1
Hf     0.00000000000000     0.00000000000000     0.00000000000000
Hf     2.55638116752727     2.55638116752727     0.00000000000000
Hf     2.55638116752727     0.00000000000000     2.55638116752727
Hf     0.00000000000000     2.55638116752727     2.55638116752727
O     2.55638116752727     0.00000000000000     0.00000000000000
O     0.00000000000000     2.55638116752727     0.00000000000000
O     0.00000000000000     0.00000000000000     2.55638116752727
O     2.55638116752727     2.55638116752727     2.55638116752727
O     3.83457175129090     3.83457175129090     1.27819058376363
O     3.83457175129090     1.27819058376363     3.83457175129090
O     1.27819058376363     3.83457175129090     3.83457175129090
O     3.83457175129090     1.27819058376363     1.27819058376363
O     1.27819058376363     3.83457175129090     1.27819058376363
O     1.27819058376363     1.27819058376363     3.83457175129090