CRYSTAL
# Primitive lattice vectors in Angstrom
PRIMVEC
 2.74348881989635 0.00000000000000 1.58395400868588
 0.91449627329878 2.58658606487758 1.58395400868588
 0.00000000000000 0.00000000000000 3.16790801737177
# Cartesian coordinates in Angstrom.
PRIMCOORD
 2 1
Hf     0.00000000000000     0.00000000000000     0.00000000000000
O     1.82899254659757     1.29329303243879     3.16790801737177