CRYSTAL
# Primitive lattice vectors in Angstrom
PRIMVEC
 3.06304835496932 0.00000000000000 1.76845179228237
 1.02101611832310 2.88786968386814 1.76845179228237
 0.00000000000000 0.00000000000000 3.53690358456475
# Cartesian coordinates in Angstrom.
PRIMCOORD
 3 1
Hf     0.00000000000000     0.00000000000000     0.00000000000000
O     1.02101611832310     0.72196742096703     1.76845179228237
O     3.06304835496931     2.16590226290110     5.30535537684713