CRYSTAL
# Primitive lattice vectors in Angstrom
PRIMVEC
 3.44647299021248 0.00000000000000 1.98982210865395
 1.14882433007082 3.24936589674070 1.98982210865395
 0.00000000000000 0.00000000000000 3.97964421730791
# Cartesian coordinates in Angstrom.
PRIMCOORD
 3 1
Hf     1.14882433007083     0.81234147418517     1.98982210865395
Hf     3.44647299021248     2.43702442255553     5.96946632596186
O     0.00000000000000     0.00000000000000     0.00000000000000