CRYSTAL
# Primitive lattice vectors in Angstrom
PRIMVEC
 2.92683457896593 0.00000000000000 1.68980873203948
 0.97561152632198 2.75944610426411 1.68980873203948
 0.00000000000000 0.00000000000000 3.37961746407897
# Cartesian coordinates in Angstrom.
PRIMCOORD
 2 1
Hg     0.00000000000000     0.00000000000000     0.00000000000000
O     1.95122305264395     1.37972305213205     3.37961746407897