CRYSTAL
# Primitive lattice vectors in Angstrom
PRIMVEC
 3.20324063510499 0.00000000000000 1.84939184295701
 1.06774687836833 3.02004423314006 1.84939184295701
 0.00000000000000 0.00000000000000 3.69878368591403
# Cartesian coordinates in Angstrom.
PRIMCOORD
 3 1
Hg     0.00000000000000     0.00000000000000     0.00000000000000
O     1.06774687836833     0.75501105828501     1.84939184295701
O     3.20324063510499     2.26503317485504     5.54817552887105