CRYSTAL
# Primitive lattice vectors in Angstrom
PRIMVEC
 4.03931417115585 0.00000000000000 0.00000000000000
 -0.00000000000000 4.03931417115585 0.00000000000000
 0.00000000000000 0.00000000000000 4.03931417115585
# Cartesian coordinates in Angstrom.
PRIMCOORD
 4 1
Hg     0.00000000000000     0.00000000000000     0.00000000000000
O     2.01965708557792     0.00000000000000     0.00000000000000
O     0.00000000000000     2.01965708557792     0.00000000000000
O     0.00000000000000     0.00000000000000     2.01965708557792