CRYSTAL
# Primitive lattice vectors in Angstrom
PRIMVEC
 5.18564335891463 0.00000000000000 0.00000000000000
 -0.00000000000000 5.18564335891463 0.00000000000000
 0.00000000000000 0.00000000000000 5.18564335891463
# Cartesian coordinates in Angstrom.
PRIMCOORD
 10 1
Hg     1.29641083972865     1.29641083972865     1.29641083972865
Hg     3.88923251918597     3.88923251918597     1.29641083972865
Hg     3.88923251918597     1.29641083972865     3.88923251918597
Hg     1.29641083972865     3.88923251918597     3.88923251918597
O     2.59282167945732     0.00000000000000     0.00000000000000
O     0.00000000000000     2.59282167945732     0.00000000000000
O     0.00000000000000     0.00000000000000     2.59282167945732
O     2.59282167945732     2.59282167945732     0.00000000000000
O     2.59282167945732     0.00000000000000     2.59282167945732
O     0.00000000000000     2.59282167945732     2.59282167945732