CRYSTAL
# Primitive lattice vectors in Angstrom
PRIMVEC
 5.31619275842953 0.00000000000000 0.00000000000000
 -0.00000000000000 5.31619275842953 0.00000000000000
 0.00000000000000 0.00000000000000 5.31619275842953
# Cartesian coordinates in Angstrom.
PRIMCOORD
 14 1
Hg     0.00000000000000     0.00000000000000     0.00000000000000
Hg     2.65809637921476     2.65809637921476     0.00000000000000
Hg     2.65809637921476     0.00000000000000     2.65809637921476
Hg     0.00000000000000     2.65809637921476     2.65809637921476
O     2.65809637921476     0.00000000000000     0.00000000000000
O     0.00000000000000     2.65809637921476     0.00000000000000
O     0.00000000000000     0.00000000000000     2.65809637921476
O     2.65809637921476     2.65809637921476     2.65809637921476
O     3.98714456882215     3.98714456882215     1.32904818960738
O     3.98714456882215     1.32904818960738     3.98714456882215
O     1.32904818960738     3.98714456882215     3.98714456882215
O     3.98714456882215     1.32904818960738     1.32904818960738
O     1.32904818960738     3.98714456882215     1.32904818960738
O     1.32904818960738     1.32904818960738     3.98714456882215