CRYSTAL
# Primitive lattice vectors in Angstrom
PRIMVEC
 3.58610887425619 0.00000000000000 2.07044092389512
 1.19536962475206 3.38101587074641 2.07044092389512
 0.00000000000000 0.00000000000000 4.14088184779024
# Cartesian coordinates in Angstrom.
PRIMCOORD
 3 1
Hg     1.19536962475206     0.84525396768660     2.07044092389512
Hg     3.58610887425619     2.53576190305981     6.21132277168536
O     0.00000000000000     0.00000000000000     0.00000000000000