CRYSTAL
# Primitive lattice vectors in Angstrom
PRIMVEC
 3.15156273590239 0.00000000000000 1.81955559394124
 1.05052091196746 2.97132184252188 1.81955559394124
 0.00000000000000 0.00000000000000 3.63911118788247
# Cartesian coordinates in Angstrom.
PRIMCOORD
 3 1
Ho     0.00000000000000     0.00000000000000     0.00000000000000
O     1.05052091196746     0.74283046063047     1.81955559394124
O     3.15156273590239     2.22849138189141     5.45866678182372