CRYSTAL
# Primitive lattice vectors in Angstrom
PRIMVEC
 3.47389792490028 0.00000000000000 2.00565590207846
 1.15796597496676 3.27522237312915 2.00565590207846
 0.00000000000000 0.00000000000000 4.01131180415692
# Cartesian coordinates in Angstrom.
PRIMCOORD
 3 1
Ho     1.15796597496676     0.81880559328229     2.00565590207846
Ho     3.47389792490028     2.45641677984686     6.01696770623538
O     0.00000000000000     0.00000000000000     0.00000000000000