CRYSTAL
# Primitive lattice vectors in Angstrom
PRIMVEC
 2.86384530693463 0.00000000000000 1.65344185887615
 0.95461510231154 2.70005924907032 1.65344185887615
 0.00000000000000 0.00000000000000 3.30688371775230
# Cartesian coordinates in Angstrom.
PRIMCOORD
 2 1
Ho     0.00000000000000     0.00000000000000     0.00000000000000
O     1.90923020462308     1.35002962453516     3.30688371775230