CRYSTAL
# Primitive lattice vectors in Angstrom
PRIMVEC
 5.22099507167998 0.00000000000000 0.00000000000000
 -0.00000000000000 5.22099507167998 0.00000000000000
 0.00000000000000 0.00000000000000 5.22099507167998
# Cartesian coordinates in Angstrom.
PRIMCOORD
 14 1
Ho     0.00000000000000     0.00000000000000     0.00000000000000
Ho     2.61049753583999     2.61049753583999     0.00000000000000
Ho     2.61049753583999     0.00000000000000     2.61049753583999
Ho     0.00000000000000     2.61049753583999     2.61049753583999
O     2.61049753583999     0.00000000000000     0.00000000000000
O     0.00000000000000     2.61049753583999     0.00000000000000
O     0.00000000000000     0.00000000000000     2.61049753583999
O     2.61049753583999     2.61049753583999     2.61049753583999
O     3.91574630375999     3.91574630375999     1.30524876792000
O     3.91574630375999     1.30524876792000     3.91574630375999
O     1.30524876792000     3.91574630375999     3.91574630375999
O     3.91574630375999     1.30524876792000     1.30524876792000
O     1.30524876792000     3.91574630375999     1.30524876792000
O     1.30524876792000     1.30524876792000     3.91574630375999