CRYSTAL
# Primitive lattice vectors in Angstrom
PRIMVEC
 4.05017947806575 0.00000000000000 0.00000000000000
 -0.00000000000000 4.05017947806575 0.00000000000000
 0.00000000000000 0.00000000000000 4.05017947806575
# Cartesian coordinates in Angstrom.
PRIMCOORD
 4 1
Ho     0.00000000000000     0.00000000000000     0.00000000000000
O     2.02508973903287     0.00000000000000     0.00000000000000
O     0.00000000000000     2.02508973903287     0.00000000000000
O     0.00000000000000     0.00000000000000     2.02508973903287