CRYSTAL
# Primitive lattice vectors in Angstrom
PRIMVEC
 5.14163478158632 0.00000000000000 0.00000000000000
 -0.00000000000000 5.14163478158632 0.00000000000000
 0.00000000000000 0.00000000000000 5.14163478158632
# Cartesian coordinates in Angstrom.
PRIMCOORD
 10 1
Ho     1.28540869539658     1.28540869539658     1.28540869539658
Ho     3.85622608618974     3.85622608618974     1.28540869539658
Ho     3.85622608618974     1.28540869539658     3.85622608618974
Ho     1.28540869539658     3.85622608618974     3.85622608618974
O     2.57081739079316     0.00000000000000     0.00000000000000
O     0.00000000000000     2.57081739079316     0.00000000000000
O     0.00000000000000     0.00000000000000     2.57081739079316
O     2.57081739079316     2.57081739079316     0.00000000000000
O     2.57081739079316     0.00000000000000     2.57081739079316
O     0.00000000000000     2.57081739079316     2.57081739079316