CRYSTAL
# Primitive lattice vectors in Angstrom
PRIMVEC
 5.37828524115795 0.00000000000000 0.00000000000000
 -0.00000000000000 5.37828524115795 0.00000000000000
 0.00000000000000 0.00000000000000 5.37828524115795
# Cartesian coordinates in Angstrom.
PRIMCOORD
 10 1
I     1.34457131028949     1.34457131028949     1.34457131028949
I     4.03371393086847     4.03371393086847     1.34457131028949
I     4.03371393086847     1.34457131028949     4.03371393086847
I     1.34457131028949     4.03371393086847     4.03371393086847
O     2.68914262057898     0.00000000000000     0.00000000000000
O     0.00000000000000     2.68914262057898     0.00000000000000
O     0.00000000000000     0.00000000000000     2.68914262057898
O     2.68914262057898     2.68914262057898     0.00000000000000
O     2.68914262057898     0.00000000000000     2.68914262057898
O     0.00000000000000     2.68914262057898     2.68914262057898