CRYSTAL
# Primitive lattice vectors in Angstrom
PRIMVEC
 3.89712661495448 0.00000000000000 2.25000710021003
 1.29904220498482 3.67424620876918 2.25000710021003
 0.00000000000000 0.00000000000000 4.50001420042005
# Cartesian coordinates in Angstrom.
PRIMCOORD
 3 1
I     1.29904220498482     0.91856155219229     2.25000710021003
I     3.89712661495448     2.75568465657689     6.75002130063008
O     0.00000000000000     0.00000000000000     0.00000000000000