CRYSTAL
# Primitive lattice vectors in Angstrom
PRIMVEC
 5.32122781891167 0.00000000000000 0.00000000000000
 -0.00000000000000 5.32122781891167 0.00000000000000
 0.00000000000000 0.00000000000000 5.32122781891167
# Cartesian coordinates in Angstrom.
PRIMCOORD
 14 1
I     0.00000000000000     0.00000000000000     0.00000000000000
I     2.66061390945584     2.66061390945584     0.00000000000000
I     2.66061390945584     0.00000000000000     2.66061390945584
I     0.00000000000000     2.66061390945584     2.66061390945584
O     2.66061390945584     0.00000000000000     0.00000000000000
O     0.00000000000000     2.66061390945584     0.00000000000000
O     0.00000000000000     0.00000000000000     2.66061390945584
O     2.66061390945584     2.66061390945584     2.66061390945584
O     3.99092086418375     3.99092086418375     1.33030695472792
O     3.99092086418375     1.33030695472792     3.99092086418375
O     1.33030695472792     3.99092086418375     3.99092086418375
O     3.99092086418375     1.33030695472792     1.33030695472792
O     1.33030695472792     3.99092086418375     1.33030695472792
O     1.33030695472792     1.33030695472792     3.99092086418375