CRYSTAL
# Primitive lattice vectors in Angstrom
PRIMVEC
 3.28626226502025 0.00000000000000 1.89732440333715
 1.09542075500675 3.09831777647105 1.89732440333715
 0.00000000000000 0.00000000000000 3.79464880667430
# Cartesian coordinates in Angstrom.
PRIMCOORD
 3 1
I     0.00000000000000     0.00000000000000     0.00000000000000
O     1.09542075500675     0.77457944411776     1.89732440333715
O     3.28626226502025     2.32373833235329     5.69197321001146