CRYSTAL
# Primitive lattice vectors in Angstrom
PRIMVEC
 3.18219110047283 0.00000000000000 1.83723888847082
 1.06073036682428 3.00019854156776 1.83723888847082
 0.00000000000000 0.00000000000000 3.67447777694164
# Cartesian coordinates in Angstrom.
PRIMCOORD
 2 1
I     0.00000000000000     0.00000000000000     0.00000000000000
O     2.12146073364856     1.50009927078388     3.67447777694164