CRYSTAL
# Primitive lattice vectors in Angstrom
PRIMVEC
 3.86630029525428 0.00000000000000 0.00000000000000
 -0.00000000000000 3.86630029525428 0.00000000000000
 0.00000000000000 0.00000000000000 3.86630029525428
# Cartesian coordinates in Angstrom.
PRIMCOORD
 4 1
I     0.00000000000000     0.00000000000000     0.00000000000000
O     1.93315014762713     0.00000000000000     0.00000000000000
O     0.00000000000000     1.93315014762713     0.00000000000000
O     0.00000000000000     0.00000000000000     1.93315014762713