CRYSTAL
# Primitive lattice vectors in Angstrom
PRIMVEC
 3.14642372401336 0.00000000000000 1.81658858404374
 1.04880790800445 2.96647673564811 1.81658858404374
 0.00000000000000 0.00000000000000 3.63317716808748
# Cartesian coordinates in Angstrom.
PRIMCOORD
 3 1
In     0.00000000000000     0.00000000000000     0.00000000000000
O     1.04880790800445     0.74161918391203     1.81658858404374
O     3.14642372401336     2.22485755173608     5.44976575213122