CRYSTAL
# Primitive lattice vectors in Angstrom
PRIMVEC
 3.78352656763665 0.00000000000000 2.18442008231112
 1.26117552254555 3.56714305703378 2.18442008231112
 0.00000000000000 0.00000000000000 4.36884016462225
# Cartesian coordinates in Angstrom.
PRIMCOORD
 3 1
In     1.26117552254555     0.89178576425844     2.18442008231112
In     3.78352656763665     2.67535729277534     6.55326024693337
O     0.00000000000000     0.00000000000000     0.00000000000000