CRYSTAL
# Primitive lattice vectors in Angstrom
PRIMVEC
 5.24701060923402 0.00000000000000 0.00000000000000
 -0.00000000000000 5.24701060923402 0.00000000000000
 0.00000000000000 0.00000000000000 5.24701060923402
# Cartesian coordinates in Angstrom.
PRIMCOORD
 14 1
In     0.00000000000000     0.00000000000000     0.00000000000000
In     2.62350530461701     2.62350530461701     0.00000000000000
In     2.62350530461701     0.00000000000000     2.62350530461701
In     0.00000000000000     2.62350530461701     2.62350530461701
O     2.62350530461701     0.00000000000000     0.00000000000000
O     0.00000000000000     2.62350530461701     0.00000000000000
O     0.00000000000000     0.00000000000000     2.62350530461701
O     2.62350530461701     2.62350530461701     2.62350530461701
O     3.93525795692551     3.93525795692551     1.31175265230851
O     3.93525795692551     1.31175265230851     3.93525795692551
O     1.31175265230851     3.93525795692551     3.93525795692551
O     3.93525795692551     1.31175265230851     1.31175265230851
O     1.31175265230851     3.93525795692551     1.31175265230851
O     1.31175265230851     1.31175265230851     3.93525795692551