CRYSTAL
# Primitive lattice vectors in Angstrom
PRIMVEC
 5.07774382684602 0.00000000000000 0.00000000000000
 -0.00000000000000 5.07774382684602 0.00000000000000
 0.00000000000000 0.00000000000000 5.07774382684602
# Cartesian coordinates in Angstrom.
PRIMCOORD
 10 1
In     1.26943595671150     1.26943595671150     1.26943595671150
In     3.80830787013452     3.80830787013452     1.26943595671150
In     3.80830787013452     1.26943595671150     3.80830787013452
In     1.26943595671150     3.80830787013452     3.80830787013452
O     2.53887191342301     0.00000000000000     0.00000000000000
O     0.00000000000000     2.53887191342301     0.00000000000000
O     0.00000000000000     0.00000000000000     2.53887191342301
O     2.53887191342301     2.53887191342301     0.00000000000000
O     2.53887191342301     0.00000000000000     2.53887191342301
O     0.00000000000000     2.53887191342301     2.53887191342301