CRYSTAL
# Primitive lattice vectors in Angstrom
PRIMVEC
 2.95727155065162 0.00000000000000 1.70738152583553
 0.98575718355054 2.78814235636775 1.70738152583553
 0.00000000000000 0.00000000000000 3.41476305167106
# Cartesian coordinates in Angstrom.
PRIMCOORD
 2 1
In     0.00000000000000     0.00000000000000     0.00000000000000
O     1.97151436710108     1.39407117818387     3.41476305167106