CRYSTAL
# Primitive lattice vectors in Angstrom
PRIMVEC
 2.71423821019487 0.00000000000000 1.56706616130077
 0.90474607006496 2.55900832557924 1.56706616130077
 0.00000000000000 0.00000000000000 3.13413232260154
# Cartesian coordinates in Angstrom.
PRIMCOORD
 2 1
Ir     0.00000000000000     0.00000000000000     0.00000000000000
O     1.80949214012991     1.27950416278961     3.13413232260154