CRYSTAL
# Primitive lattice vectors in Angstrom
PRIMVEC
 2.97602518911330 0.00000000000000 1.71820894404967
 0.99200839637110 2.80582345627199 1.71820894404967
 0.00000000000000 0.00000000000000 3.43641788809934
# Cartesian coordinates in Angstrom.
PRIMCOORD
 3 1
Ir     0.00000000000000     0.00000000000000     0.00000000000000
O     0.99200839637110     0.70145586406800     1.71820894404967
O     2.97602518911330     2.10436759220400     5.15462683214902