CRYSTAL
# Primitive lattice vectors in Angstrom
PRIMVEC
 4.96194693897296 0.00000000000000 0.00000000000000
 -0.00000000000000 4.96194693897296 0.00000000000000
 0.00000000000000 0.00000000000000 4.96194693897296
# Cartesian coordinates in Angstrom.
PRIMCOORD
 14 1
Ir     0.00000000000000     0.00000000000000     0.00000000000000
Ir     2.48097346948648     2.48097346948648     0.00000000000000
Ir     2.48097346948648     0.00000000000000     2.48097346948648
Ir     0.00000000000000     2.48097346948648     2.48097346948648
O     2.48097346948648     0.00000000000000     0.00000000000000
O     0.00000000000000     2.48097346948648     0.00000000000000
O     0.00000000000000     0.00000000000000     2.48097346948648
O     2.48097346948648     2.48097346948648     2.48097346948648
O     3.72146020422972     3.72146020422972     1.24048673474324
O     3.72146020422972     1.24048673474324     3.72146020422972
O     1.24048673474324     3.72146020422972     3.72146020422972
O     3.72146020422972     1.24048673474324     1.24048673474324
O     1.24048673474324     3.72146020422972     1.24048673474324
O     1.24048673474324     1.24048673474324     3.72146020422972