CRYSTAL
# Primitive lattice vectors in Angstrom
PRIMVEC
 3.26641767755987 0.00000000000000 1.88586712542495
 1.08880589251996 3.07960811998693 1.88586712542495
 0.00000000000000 0.00000000000000 3.77173425084989
# Cartesian coordinates in Angstrom.
PRIMCOORD
 3 1
Ir     1.08880589251996     0.76990202999673     1.88586712542495
Ir     3.26641767755987     2.30970608999020     5.65760137627484
O     0.00000000000000     0.00000000000000     0.00000000000000