CRYSTAL
# Primitive lattice vectors in Angstrom
PRIMVEC
 4.70955943931804 0.00000000000000 0.00000000000000
 -0.00000000000000 4.70955943931804 0.00000000000000
 0.00000000000000 0.00000000000000 4.70955943931804
# Cartesian coordinates in Angstrom.
PRIMCOORD
 10 1
Ir     1.17738985982951     1.17738985982951     1.17738985982951
Ir     3.53216957948853     3.53216957948853     1.17738985982951
Ir     3.53216957948853     1.17738985982951     3.53216957948853
Ir     1.17738985982951     3.53216957948853     3.53216957948853
O     2.35477971965902     0.00000000000000     0.00000000000000
O     0.00000000000000     2.35477971965902     0.00000000000000
O     0.00000000000000     0.00000000000000     2.35477971965902
O     2.35477971965902     2.35477971965902     0.00000000000000
O     2.35477971965902     0.00000000000000     2.35477971965902
O     0.00000000000000     2.35477971965902     2.35477971965902