CRYSTAL
# Primitive lattice vectors in Angstrom
PRIMVEC
 3.71135895846155 0.00000000000000 0.00000000000000
 -0.00000000000000 3.71135895846155 0.00000000000000
 0.00000000000000 0.00000000000000 3.71135895846155
# Cartesian coordinates in Angstrom.
PRIMCOORD
 4 1
Ir     0.00000000000000     0.00000000000000     0.00000000000000
O     1.85567947923077     0.00000000000000     0.00000000000000
O     0.00000000000000     1.85567947923077     0.00000000000000
O     0.00000000000000     0.00000000000000     1.85567947923077