CRYSTAL
# Primitive lattice vectors in Angstrom
PRIMVEC
 5.77464844050571 0.00000000000000 0.00000000000000
 -0.00000000000000 5.77464844050571 0.00000000000000
 0.00000000000000 0.00000000000000 5.77464844050571
# Cartesian coordinates in Angstrom.
PRIMCOORD
 10 1
K     1.44366211012643     1.44366211012643     1.44366211012643
K     4.33098633037929     4.33098633037929     1.44366211012643
K     4.33098633037929     1.44366211012643     4.33098633037929
K     1.44366211012643     4.33098633037929     4.33098633037929
O     2.88732422025286     0.00000000000000     0.00000000000000
O     0.00000000000000     2.88732422025286     0.00000000000000
O     0.00000000000000     0.00000000000000     2.88732422025286
O     2.88732422025286     2.88732422025286     0.00000000000000
O     2.88732422025286     0.00000000000000     2.88732422025286
O     0.00000000000000     2.88732422025286     2.88732422025286