CRYSTAL
# Primitive lattice vectors in Angstrom
PRIMVEC
 5.54203585883069 0.00000000000000 0.00000000000000
 -0.00000000000000 5.54203585883069 0.00000000000000
 0.00000000000000 0.00000000000000 5.54203585883069
# Cartesian coordinates in Angstrom.
PRIMCOORD
 14 1
K     0.00000000000000     0.00000000000000     0.00000000000000
K     2.77101792941534     2.77101792941534     0.00000000000000
K     2.77101792941534     0.00000000000000     2.77101792941534
K     0.00000000000000     2.77101792941534     2.77101792941534
O     2.77101792941534     0.00000000000000     0.00000000000000
O     0.00000000000000     2.77101792941534     0.00000000000000
O     0.00000000000000     0.00000000000000     2.77101792941534
O     2.77101792941534     2.77101792941534     2.77101792941534
O     4.15652689412302     4.15652689412302     1.38550896470767
O     4.15652689412302     1.38550896470767     4.15652689412302
O     1.38550896470767     4.15652689412302     4.15652689412302
O     4.15652689412302     1.38550896470767     1.38550896470767
O     1.38550896470767     4.15652689412302     1.38550896470767
O     1.38550896470767     1.38550896470767     4.15652689412302