CRYSTAL
# Primitive lattice vectors in Angstrom
PRIMVEC
 3.78642574553640 0.00000000000000 2.18609392345197
 1.26214191517880 3.56987642817083 2.18609392345197
 0.00000000000000 0.00000000000000 4.37218784690395
# Cartesian coordinates in Angstrom.
PRIMCOORD
 3 1
K     1.26214191517880     0.89246910704270     2.18609392345197
K     3.78642574553640     2.67740732112812     6.55828177035592
O     0.00000000000000     0.00000000000000     0.00000000000000