CRYSTAL
# Primitive lattice vectors in Angstrom
PRIMVEC
 3.21064827580662 0.00000000000000 1.85366864631016
 1.07021609193554 3.02702822377034 1.85366864631016
 0.00000000000000 0.00000000000000 3.70733729262031
# Cartesian coordinates in Angstrom.
PRIMCOORD
 2 1
K     0.00000000000000     0.00000000000000     0.00000000000000
O     2.14043218387108     1.51351411188517     3.70733729262031