CRYSTAL
# Primitive lattice vectors in Angstrom
PRIMVEC
 4.52010625429745 0.00000000000000 0.00000000000000
 -0.00000000000000 4.52010625429745 0.00000000000000
 0.00000000000000 0.00000000000000 4.52010625429745
# Cartesian coordinates in Angstrom.
PRIMCOORD
 4 1
K     0.00000000000000     0.00000000000000     0.00000000000000
O     2.26005312714872     0.00000000000000     0.00000000000000
O     0.00000000000000     2.26005312714872     0.00000000000000
O     0.00000000000000     0.00000000000000     2.26005312714872