CRYSTAL
# Primitive lattice vectors in Angstrom
PRIMVEC
 3.54301531721344 0.00000000000000 2.04556084713615
 1.18100510573781 3.34038687553258 2.04556084713615
 0.00000000000000 0.00000000000000 4.09112169427229
# Cartesian coordinates in Angstrom.
PRIMCOORD
 3 1
K     0.00000000000000     0.00000000000000     0.00000000000000
O     1.18100510573781     0.83509671888314     2.04556084713615
O     3.54301531721344     2.50529015664943     6.13668254140845