CRYSTAL
# Primitive lattice vectors in Angstrom
PRIMVEC
 3.92795889227213 0.00000000000000 0.00000000000000
 -0.00000000000000 3.92795889227213 0.00000000000000
 0.00000000000000 0.00000000000000 3.92795889227213
# Cartesian coordinates in Angstrom.
PRIMCOORD
 4 1
Kr     0.00000000000000     0.00000000000000     0.00000000000000
O     1.96397944613606     0.00000000000000     0.00000000000000
O     0.00000000000000     1.96397944613606     0.00000000000000
O     0.00000000000000     0.00000000000000     1.96397944613606