CRYSTAL
# Primitive lattice vectors in Angstrom
PRIMVEC
 3.13380511640465 0.00000000000000 1.80930322754405
 1.04460170546822 2.95457979830244 1.80930322754405
 0.00000000000000 0.00000000000000 3.61860645508810
# Cartesian coordinates in Angstrom.
PRIMCOORD
 2 1
Kr     0.00000000000000     0.00000000000000     0.00000000000000
O     2.08920341093644     1.47728989915121     3.61860645508810