CRYSTAL
# Primitive lattice vectors in Angstrom
PRIMVEC
 5.50186612869557 0.00000000000000 0.00000000000000
 -0.00000000000000 5.50186612869557 0.00000000000000
 0.00000000000000 0.00000000000000 5.50186612869557
# Cartesian coordinates in Angstrom.
PRIMCOORD
 10 1
Kr     1.37546653217389     1.37546653217389     1.37546653217389
Kr     4.12639959652168     4.12639959652168     1.37546653217389
Kr     4.12639959652168     1.37546653217389     4.12639959652168
Kr     1.37546653217389     4.12639959652168     4.12639959652168
O     2.75093306434779     0.00000000000000     0.00000000000000
O     0.00000000000000     2.75093306434779     0.00000000000000
O     0.00000000000000     0.00000000000000     2.75093306434779
O     2.75093306434779     2.75093306434779     0.00000000000000
O     2.75093306434779     0.00000000000000     2.75093306434779
O     0.00000000000000     2.75093306434779     2.75093306434779