CRYSTAL
# Primitive lattice vectors in Angstrom
PRIMVEC
 5.48134683195142 0.00000000000000 0.00000000000000
 -0.00000000000000 5.48134683195142 0.00000000000000
 0.00000000000000 0.00000000000000 5.48134683195142
# Cartesian coordinates in Angstrom.
PRIMCOORD
 14 1
Kr     0.00000000000000     0.00000000000000     0.00000000000000
Kr     2.74067341597571     2.74067341597571     0.00000000000000
Kr     2.74067341597571     0.00000000000000     2.74067341597571
Kr     0.00000000000000     2.74067341597571     2.74067341597571
O     2.74067341597571     0.00000000000000     0.00000000000000
O     0.00000000000000     2.74067341597571     0.00000000000000
O     0.00000000000000     0.00000000000000     2.74067341597571
O     2.74067341597571     2.74067341597571     2.74067341597571
O     4.11101012396357     4.11101012396357     1.37033670798786
O     4.11101012396357     1.37033670798786     4.11101012396357
O     1.37033670798786     4.11101012396357     4.11101012396357
O     4.11101012396357     1.37033670798786     1.37033670798786
O     1.37033670798786     4.11101012396357     1.37033670798786
O     1.37033670798786     1.37033670798786     4.11101012396357