CRYSTAL
# Primitive lattice vectors in Angstrom
PRIMVEC
 4.19368590410338 0.00000000000000 2.42122568563083
 1.39789530136779 3.95384498794391 2.42122568563083
 0.00000000000000 0.00000000000000 4.84245137126165
# Cartesian coordinates in Angstrom.
PRIMCOORD
 3 1
Kr     1.39789530136779     0.98846124698598     2.42122568563083
Kr     4.19368590410338     2.96538374095794     7.26367705689248
O     0.00000000000000     0.00000000000000     0.00000000000000