CRYSTAL
# Primitive lattice vectors in Angstrom
PRIMVEC
 3.34657441157497 0.00000000000000 1.93214563738592
 1.11552480385832 3.15518061356006 1.93214563738592
 0.00000000000000 0.00000000000000 3.86429127477184
# Cartesian coordinates in Angstrom.
PRIMCOORD
 3 1
Kr     0.00000000000000     0.00000000000000     0.00000000000000
O     1.11552480385832     0.78879515339001     1.93214563738592
O     3.34657441157497     2.36638546017004     5.79643691215778