CRYSTAL
# Primitive lattice vectors in Angstrom
PRIMVEC
 5.55876184099981 0.00000000000000 0.00000000000000
 -0.00000000000000 5.55876184099981 0.00000000000000
 0.00000000000000 0.00000000000000 5.55876184099981
# Cartesian coordinates in Angstrom.
PRIMCOORD
 10 1
La     1.38969046024995     1.38969046024995     1.38969046024995
La     4.16907138074986     4.16907138074986     1.38969046024995
La     4.16907138074986     1.38969046024995     4.16907138074986
La     1.38969046024995     4.16907138074986     4.16907138074986
O     2.77938092049991     0.00000000000000     0.00000000000000
O     0.00000000000000     2.77938092049991     0.00000000000000
O     0.00000000000000     0.00000000000000     2.77938092049991
O     2.77938092049991     2.77938092049991     0.00000000000000
O     2.77938092049991     0.00000000000000     2.77938092049991
O     0.00000000000000     2.77938092049991     2.77938092049991