CRYSTAL
# Primitive lattice vectors in Angstrom
PRIMVEC
 5.59858086682737 0.00000000000000 0.00000000000000
 -0.00000000000000 5.59858086682737 0.00000000000000
 0.00000000000000 0.00000000000000 5.59858086682737
# Cartesian coordinates in Angstrom.
PRIMCOORD
 14 1
La     0.00000000000000     0.00000000000000     0.00000000000000
La     2.79929043341369     2.79929043341369     0.00000000000000
La     2.79929043341369     0.00000000000000     2.79929043341369
La     0.00000000000000     2.79929043341369     2.79929043341369
O     2.79929043341369     0.00000000000000     0.00000000000000
O     0.00000000000000     2.79929043341369     0.00000000000000
O     0.00000000000000     0.00000000000000     2.79929043341369
O     2.79929043341369     2.79929043341369     2.79929043341369
O     4.19893565012053     4.19893565012053     1.39964521670684
O     4.19893565012053     1.39964521670684     4.19893565012053
O     1.39964521670684     4.19893565012053     4.19893565012053
O     4.19893565012053     1.39964521670684     1.39964521670684
O     1.39964521670684     4.19893565012053     1.39964521670684
O     1.39964521670684     1.39964521670684     4.19893565012053