CRYSTAL
# Primitive lattice vectors in Angstrom
PRIMVEC
 4.29417421936700 0.00000000000000 0.00000000000000
 -0.00000000000000 4.29417421936700 0.00000000000000
 0.00000000000000 0.00000000000000 4.29417421936700
# Cartesian coordinates in Angstrom.
PRIMCOORD
 4 1
La     0.00000000000000     0.00000000000000     0.00000000000000
O     2.14708710968350     0.00000000000000     0.00000000000000
O     0.00000000000000     2.14708710968350     0.00000000000000
O     0.00000000000000     0.00000000000000     2.14708710968350