CRYSTAL
# Primitive lattice vectors in Angstrom
PRIMVEC
 3.80080862533616 0.00000000000000 2.19439788297609
 1.26693620844538 3.58343673729003 2.19439788297609
 0.00000000000000 0.00000000000000 4.38879576595217
# Cartesian coordinates in Angstrom.
PRIMCOORD
 3 1
La     1.26693620844538     0.89585918432250     2.19439788297609
La     3.80080862533616     2.68757755296752     6.58319364892826
O     0.00000000000000     0.00000000000000     0.00000000000000