CRYSTAL
# Primitive lattice vectors in Angstrom
PRIMVEC
 3.09649855283626 0.00000000000000 1.78776427302530
 1.03216618427875 2.91940683285980 1.78776427302530
 0.00000000000000 0.00000000000000 3.57552854605059
# Cartesian coordinates in Angstrom.
PRIMCOORD
 2 1
La     0.00000000000000     0.00000000000000     0.00000000000000
O     2.06433236855751     1.45970341642989     3.57552854605059