CRYSTAL
# Primitive lattice vectors in Angstrom
PRIMVEC
 3.44584220493533 0.00000000000000 1.98945792460439
 1.14861406831177 3.24877118667811 1.98945792460439
 0.00000000000000 0.00000000000000 3.97891584920877
# Cartesian coordinates in Angstrom.
PRIMCOORD
 3 1
La     0.00000000000000     0.00000000000000     0.00000000000000
O     1.14861406831177     0.81219279666953     1.98945792460438
O     3.44584220493533     2.43657839000858     5.96837377381317