CRYSTAL
# Primitive lattice vectors in Angstrom
PRIMVEC
 3.42879773228218 0.00000000000000 0.00000000000000
 -0.00000000000000 3.42879773228218 0.00000000000000
 0.00000000000000 0.00000000000000 3.42879773228218
# Cartesian coordinates in Angstrom.
PRIMCOORD
 4 1
Li     0.00000000000000     0.00000000000000     0.00000000000000
O     1.71439886614108     0.00000000000000     0.00000000000000
O     0.00000000000000     1.71439886614108     0.00000000000000
O     0.00000000000000     0.00000000000000     1.71439886614108