CRYSTAL
# Primitive lattice vectors in Angstrom
PRIMVEC
 4.31746071745149 0.00000000000000 0.00000000000000
 -0.00000000000000 4.31746071745149 0.00000000000000
 0.00000000000000 0.00000000000000 4.31746071745149
# Cartesian coordinates in Angstrom.
PRIMCOORD
 10 1
Li     1.07936517936287     1.07936517936287     1.07936517936287
Li     3.23809553808862     3.23809553808862     1.07936517936287
Li     3.23809553808862     1.07936517936287     3.23809553808862
Li     1.07936517936287     3.23809553808862     3.23809553808862
O     2.15873035872575     0.00000000000000     0.00000000000000
O     0.00000000000000     2.15873035872575     0.00000000000000
O     0.00000000000000     0.00000000000000     2.15873035872575
O     2.15873035872575     2.15873035872575     0.00000000000000
O     2.15873035872575     0.00000000000000     2.15873035872575
O     0.00000000000000     2.15873035872575     2.15873035872575