CRYSTAL
# Primitive lattice vectors in Angstrom
PRIMVEC
 2.75129965190159 0.00000000000000 1.58846359464671
 0.91709988396719 2.59395018791440 1.58846359464671
 0.00000000000000 0.00000000000000 3.17692718929342
# Cartesian coordinates in Angstrom.
PRIMCOORD
 3 1
Li     0.91709988396719     0.64848754697860     1.58846359464671
Li     2.75129965190159     1.94546264093580     4.76539078394012
O     0.00000000000000     0.00000000000000     0.00000000000000