CRYSTAL
# Primitive lattice vectors in Angstrom
PRIMVEC
 2.39597536840511 0.00000000000000 1.38331702392040
 0.79865845613504 2.25894724074025 1.38331702392040
 0.00000000000000 0.00000000000000 2.76663404784080
# Cartesian coordinates in Angstrom.
PRIMCOORD
 2 1
Li     0.00000000000000     0.00000000000000     0.00000000000000
O     1.59731691227007     1.12947362037012     2.76663404784080