CRYSTAL
# Primitive lattice vectors in Angstrom
PRIMVEC
 2.73791508544614 0.00000000000000 1.58073601160067
 0.91263836181538 2.58133109764255 1.58073601160067
 0.00000000000000 0.00000000000000 3.16147202320133
# Cartesian coordinates in Angstrom.
PRIMCOORD
 3 1
Li     0.00000000000000     0.00000000000000     0.00000000000000
O     0.91263836181538     0.64533277441064     1.58073601160067
O     2.73791508544614     1.93599832323192     4.74220803480201