CRYSTAL
# Primitive lattice vectors in Angstrom
PRIMVEC
 4.82344807811811 0.00000000000000 0.00000000000000
 -0.00000000000000 4.82344807811811 0.00000000000000
 0.00000000000000 0.00000000000000 4.82344807811811
# Cartesian coordinates in Angstrom.
PRIMCOORD
 14 1
Li     0.00000000000000     0.00000000000000     0.00000000000000
Li     2.41172403905906     2.41172403905906     0.00000000000000
Li     2.41172403905906     0.00000000000000     2.41172403905906
Li     0.00000000000000     2.41172403905906     2.41172403905906
O     2.41172403905906     0.00000000000000     0.00000000000000
O     0.00000000000000     2.41172403905906     0.00000000000000
O     0.00000000000000     0.00000000000000     2.41172403905906
O     2.41172403905906     2.41172403905906     2.41172403905906
O     3.61758605858859     3.61758605858859     1.20586201952953
O     3.61758605858859     1.20586201952953     3.61758605858859
O     1.20586201952953     3.61758605858859     3.61758605858859
O     3.61758605858859     1.20586201952953     1.20586201952953
O     1.20586201952953     3.61758605858859     1.20586201952953
O     1.20586201952953     1.20586201952953     3.61758605858859