CRYSTAL
# Primitive lattice vectors in Angstrom
PRIMVEC
 5.35283479151313 0.00000000000000 0.00000000000000
 -0.00000000000000 5.35283479151313 0.00000000000000
 0.00000000000000 0.00000000000000 5.35283479151313
# Cartesian coordinates in Angstrom.
PRIMCOORD
 14 1
Lr     0.00000000000000     0.00000000000000     0.00000000000000
Lr     2.67641739575656     2.67641739575656     0.00000000000000
Lr     2.67641739575656     0.00000000000000     2.67641739575656
Lr     0.00000000000000     2.67641739575656     2.67641739575656
O     2.67641739575656     0.00000000000000     0.00000000000000
O     0.00000000000000     2.67641739575656     0.00000000000000
O     0.00000000000000     0.00000000000000     2.67641739575656
O     2.67641739575656     2.67641739575656     2.67641739575656
O     4.01462609363485     4.01462609363485     1.33820869787828
O     4.01462609363485     1.33820869787828     4.01462609363485
O     1.33820869787828     4.01462609363485     4.01462609363485
O     4.01462609363485     1.33820869787828     1.33820869787828
O     1.33820869787828     4.01462609363485     1.33820869787828
O     1.33820869787828     1.33820869787828     4.01462609363485