CRYSTAL
# Primitive lattice vectors in Angstrom
PRIMVEC
 2.90931057078423 0.00000000000000 1.67969124119849
 0.96977019026141 2.74292431090564 1.67969124119849
 0.00000000000000 0.00000000000000 3.35938248239699
# Cartesian coordinates in Angstrom.
PRIMCOORD
 2 1
Lr     0.00000000000000     0.00000000000000     0.00000000000000
O     1.93954038052282     1.37146215545282     3.35938248239699