CRYSTAL
# Primitive lattice vectors in Angstrom
PRIMVEC
 4.22189776384590 0.00000000000000 0.00000000000000
 -0.00000000000000 4.22189776384590 0.00000000000000
 0.00000000000000 0.00000000000000 4.22189776384590
# Cartesian coordinates in Angstrom.
PRIMCOORD
 4 1
Lr     0.00000000000000     0.00000000000000     0.00000000000000
O     2.11094888192294     0.00000000000000     0.00000000000000
O     0.00000000000000     2.11094888192294     0.00000000000000
O     0.00000000000000     0.00000000000000     2.11094888192294