CRYSTAL
# Primitive lattice vectors in Angstrom
PRIMVEC
 5.25841745407468 0.00000000000000 0.00000000000000
 -0.00000000000000 5.25841745407468 0.00000000000000
 0.00000000000000 0.00000000000000 5.25841745407468
# Cartesian coordinates in Angstrom.
PRIMCOORD
 10 1
Lr     1.31460436351867     1.31460436351867     1.31460436351867
Lr     3.94381309055601     3.94381309055601     1.31460436351867
Lr     3.94381309055601     1.31460436351867     3.94381309055601
Lr     1.31460436351867     3.94381309055601     3.94381309055601
O     2.62920872703734     0.00000000000000     0.00000000000000
O     0.00000000000000     2.62920872703734     0.00000000000000
O     0.00000000000000     0.00000000000000     2.62920872703734
O     2.62920872703734     2.62920872703734     0.00000000000000
O     2.62920872703734     0.00000000000000     2.62920872703734
O     0.00000000000000     2.62920872703734     2.62920872703734