CRYSTAL
# Primitive lattice vectors in Angstrom
PRIMVEC
 3.66728270660168 0.00000000000000 2.11730665785094
 1.22242756886722 3.45754729382160 2.11730665785094
 0.00000000000000 0.00000000000000 4.23461331570188
# Cartesian coordinates in Angstrom.
PRIMCOORD
 3 1
Lr     1.22242756886722     0.86438682345540     2.11730665785094
Lr     3.66728270660168     2.59316047036620     6.35191997355282
O     0.00000000000000     0.00000000000000     0.00000000000000