CRYSTAL
# Primitive lattice vectors in Angstrom
PRIMVEC
 3.24613578467553 0.00000000000000 1.87415736910849
 1.08204526155851 3.06048616799518 1.87415736910849
 0.00000000000000 0.00000000000000 3.74831473821699
# Cartesian coordinates in Angstrom.
PRIMCOORD
 3 1
Lr     0.00000000000000     0.00000000000000     0.00000000000000
O     1.08204526155851     0.76512154199879     1.87415736910849
O     3.24613578467553     2.29536462599638     5.62247210732549