CRYSTAL
# Primitive lattice vectors in Angstrom
PRIMVEC
 5.12327992837087 0.00000000000000 0.00000000000000
 -0.00000000000000 5.12327992837087 0.00000000000000
 0.00000000000000 0.00000000000000 5.12327992837087
# Cartesian coordinates in Angstrom.
PRIMCOORD
 10 1
Lu     1.28081998209272     1.28081998209272     1.28081998209272
Lu     3.84245994627816     3.84245994627816     1.28081998209272
Lu     3.84245994627816     1.28081998209272     3.84245994627816
Lu     1.28081998209272     3.84245994627816     3.84245994627816
O     2.56163996418544     0.00000000000000     0.00000000000000
O     0.00000000000000     2.56163996418544     0.00000000000000
O     0.00000000000000     0.00000000000000     2.56163996418544
O     2.56163996418544     2.56163996418544     0.00000000000000
O     2.56163996418544     0.00000000000000     2.56163996418544
O     0.00000000000000     2.56163996418544     2.56163996418544