CRYSTAL
# Primitive lattice vectors in Angstrom
PRIMVEC
 2.81541136760709 0.00000000000000 1.62547851096748
 0.93847045586903 2.65439529315289 1.62547851096748
 0.00000000000000 0.00000000000000 3.25095702193497
# Cartesian coordinates in Angstrom.
PRIMCOORD
 2 1
Lu     0.00000000000000     0.00000000000000     0.00000000000000
O     1.87694091173806     1.32719764657644     3.25095702193497