CRYSTAL
# Primitive lattice vectors in Angstrom
PRIMVEC
 5.25479561973662 0.00000000000000 0.00000000000000
 -0.00000000000000 5.25479561973662 0.00000000000000
 0.00000000000000 0.00000000000000 5.25479561973662
# Cartesian coordinates in Angstrom.
PRIMCOORD
 14 1
Lu     0.00000000000000     0.00000000000000     0.00000000000000
Lu     2.62739780986831     2.62739780986831     0.00000000000000
Lu     2.62739780986831     0.00000000000000     2.62739780986831
Lu     0.00000000000000     2.62739780986831     2.62739780986831
O     2.62739780986831     0.00000000000000     0.00000000000000
O     0.00000000000000     2.62739780986831     0.00000000000000
O     0.00000000000000     0.00000000000000     2.62739780986831
O     2.62739780986831     2.62739780986831     2.62739780986831
O     3.94109671480246     3.94109671480246     1.31369890493415
O     3.94109671480246     1.31369890493415     3.94109671480246
O     1.31369890493415     3.94109671480246     3.94109671480246
O     3.94109671480246     1.31369890493415     1.31369890493415
O     1.31369890493415     3.94109671480246     1.31369890493415
O     1.31369890493415     1.31369890493415     3.94109671480246