CRYSTAL
# Primitive lattice vectors in Angstrom
PRIMVEC
 3.16290294978657 0.00000000000000 1.82610286947994
 1.05430098326219 2.98201349870536 1.82610286947994
 0.00000000000000 0.00000000000000 3.65220573895987
# Cartesian coordinates in Angstrom.
PRIMCOORD
 3 1
Lu     0.00000000000000     0.00000000000000     0.00000000000000
O     1.05430098326219     0.74550337467634     1.82610286947994
O     3.16290294978657     2.23651012402902     5.47830860843982