CRYSTAL
# Primitive lattice vectors in Angstrom
PRIMVEC
 3.52994353314934 0.00000000000000 2.03801384908795
 1.17664784438311 3.32806267932733 2.03801384908795
 0.00000000000000 0.00000000000000 4.07602769817590
# Cartesian coordinates in Angstrom.
PRIMCOORD
 3 1
Lu     1.17664784438311     0.83201566983183     2.03801384908795
Lu     3.52994353314934     2.49604700949550     6.11404154726385
O     0.00000000000000     0.00000000000000     0.00000000000000