CRYSTAL
# Primitive lattice vectors in Angstrom
PRIMVEC
 4.14268154337387 0.00000000000000 0.00000000000000
 -0.00000000000000 4.14268154337387 0.00000000000000
 0.00000000000000 0.00000000000000 4.14268154337387
# Cartesian coordinates in Angstrom.
PRIMCOORD
 4 1
Lu     0.00000000000000     0.00000000000000     0.00000000000000
O     2.07134077168693     0.00000000000000     0.00000000000000
O     0.00000000000000     2.07134077168693     0.00000000000000
O     0.00000000000000     0.00000000000000     2.07134077168693