CRYSTAL
# Primitive lattice vectors in Angstrom
PRIMVEC
 3.55824663692171 0.00000000000000 2.05435465366983
 1.18608221230723 3.35474710146875 2.05435465366983
 0.00000000000000 0.00000000000000 4.10870930733966
# Cartesian coordinates in Angstrom.
PRIMCOORD
 3 1
Md     1.18608221230723     0.83868677536719     2.05435465366983
Md     3.55824663692171     2.51606032610157     6.16306396100949
O     0.00000000000000     0.00000000000000     0.00000000000000