CRYSTAL
# Primitive lattice vectors in Angstrom
PRIMVEC
 5.27438131078256 0.00000000000000 0.00000000000000
 -0.00000000000000 5.27438131078256 0.00000000000000
 0.00000000000000 0.00000000000000 5.27438131078256
# Cartesian coordinates in Angstrom.
PRIMCOORD
 14 1
Md     0.00000000000000     0.00000000000000     0.00000000000000
Md     2.63719065539128     2.63719065539128     0.00000000000000
Md     2.63719065539128     0.00000000000000     2.63719065539128
Md     0.00000000000000     2.63719065539128     2.63719065539128
O     2.63719065539128     0.00000000000000     0.00000000000000
O     0.00000000000000     2.63719065539128     0.00000000000000
O     0.00000000000000     0.00000000000000     2.63719065539128
O     2.63719065539128     2.63719065539128     2.63719065539128
O     3.95578598308692     3.95578598308692     1.31859532769564
O     3.95578598308692     1.31859532769564     3.95578598308692
O     1.31859532769564     3.95578598308692     3.95578598308692
O     3.95578598308692     1.31859532769564     1.31859532769564
O     1.31859532769564     3.95578598308692     1.31859532769564
O     1.31859532769564     1.31859532769564     3.95578598308692