CRYSTAL
# Primitive lattice vectors in Angstrom
PRIMVEC
 4.07494896986848 0.00000000000000 0.00000000000000
 -0.00000000000000 4.07494896986848 0.00000000000000
 0.00000000000000 0.00000000000000 4.07494896986848
# Cartesian coordinates in Angstrom.
PRIMCOORD
 4 1
Md     0.00000000000000     0.00000000000000     0.00000000000000
O     2.03747448493424     0.00000000000000     0.00000000000000
O     0.00000000000000     2.03747448493424     0.00000000000000
O     0.00000000000000     0.00000000000000     2.03747448493424