CRYSTAL
# Primitive lattice vectors in Angstrom
PRIMVEC
 3.19837497581693 0.00000000000000 1.84658265325726
 1.06612499193897 3.01545684557001 1.84658265325726
 0.00000000000000 0.00000000000000 3.69316530651453
# Cartesian coordinates in Angstrom.
PRIMCOORD
 3 1
Md     0.00000000000000     0.00000000000000     0.00000000000000
O     1.06612499193897     0.75386421139250     1.84658265325726
O     3.19837497581693     2.26159263417751     5.53974795977180