CRYSTAL
# Primitive lattice vectors in Angstrom
PRIMVEC
 2.91864726113143 0.00000000000000 1.68508178188379
 0.97288242037714 2.75172702698344 1.68508178188379
 0.00000000000000 0.00000000000000 3.37016356376759
# Cartesian coordinates in Angstrom.
PRIMCOORD
 2 1
Md     0.00000000000000     0.00000000000000     0.00000000000000
O     1.94576484075429     1.37586351349172     3.37016356376759