CRYSTAL
# Primitive lattice vectors in Angstrom
PRIMVEC
 5.21054411010472 0.00000000000000 0.00000000000000
 -0.00000000000000 5.21054411010472 0.00000000000000
 0.00000000000000 0.00000000000000 5.21054411010472
# Cartesian coordinates in Angstrom.
PRIMCOORD
 10 1
Md     1.30263602752618     1.30263602752618     1.30263602752618
Md     3.90790808257854     3.90790808257854     1.30263602752618
Md     3.90790808257854     1.30263602752618     3.90790808257854
Md     1.30263602752618     3.90790808257854     3.90790808257854
O     2.60527205505236     0.00000000000000     0.00000000000000
O     0.00000000000000     2.60527205505236     0.00000000000000
O     0.00000000000000     0.00000000000000     2.60527205505236
O     2.60527205505236     2.60527205505236     0.00000000000000
O     2.60527205505236     0.00000000000000     2.60527205505236
O     0.00000000000000     2.60527205505236     2.60527205505236