CRYSTAL
# Primitive lattice vectors in Angstrom
PRIMVEC
 3.83484084200347 0.00000000000000 0.00000000000000
 -0.00000000000000 3.83484084200347 0.00000000000000
 0.00000000000000 0.00000000000000 3.83484084200347
# Cartesian coordinates in Angstrom.
PRIMCOORD
 4 1
Mg     0.00000000000000     0.00000000000000     0.00000000000000
O     1.91742042100173     0.00000000000000     0.00000000000000
O     0.00000000000000     1.91742042100173     0.00000000000000
O     0.00000000000000     0.00000000000000     1.91742042100173