CRYSTAL
# Primitive lattice vectors in Angstrom
PRIMVEC
 2.54739636716751 0.00000000000000 1.47073997831683
 0.84913212238917 2.40170832745883 1.47073997831683
 0.00000000000000 0.00000000000000 2.94147995663367
# Cartesian coordinates in Angstrom.
PRIMCOORD
 2 1
Mg     0.00000000000000     0.00000000000000     0.00000000000000
O     1.69826424477834     1.20085416372941     2.94147995663367