CRYSTAL
# Primitive lattice vectors in Angstrom
PRIMVEC
 3.37100753051360 0.00000000000000 1.94625210518228
 1.12366917683786 3.17821637900944 1.94625210518228
 0.00000000000000 0.00000000000000 3.89250421036456
# Cartesian coordinates in Angstrom.
PRIMCOORD
 3 1
Mg     1.12366917683786     0.79455409475236     1.94625210518228
Mg     3.37100753051360     2.38366228425708     5.83875631554685
O     0.00000000000000     0.00000000000000     0.00000000000000