CRYSTAL
# Primitive lattice vectors in Angstrom
PRIMVEC
 5.04014703211096 0.00000000000000 0.00000000000000
 -0.00000000000000 5.04014703211096 0.00000000000000
 0.00000000000000 0.00000000000000 5.04014703211096
# Cartesian coordinates in Angstrom.
PRIMCOORD
 14 1
Mg     0.00000000000000     0.00000000000000     0.00000000000000
Mg     2.52007351605548     2.52007351605548     0.00000000000000
Mg     2.52007351605548     0.00000000000000     2.52007351605548
Mg     0.00000000000000     2.52007351605548     2.52007351605548
O     2.52007351605548     0.00000000000000     0.00000000000000
O     0.00000000000000     2.52007351605548     0.00000000000000
O     0.00000000000000     0.00000000000000     2.52007351605548
O     2.52007351605548     2.52007351605548     2.52007351605548
O     3.78011027408322     3.78011027408322     1.26003675802774
O     3.78011027408322     1.26003675802774     3.78011027408322
O     1.26003675802774     3.78011027408322     3.78011027408322
O     3.78011027408322     1.26003675802774     1.26003675802774
O     1.26003675802774     3.78011027408322     1.26003675802774
O     1.26003675802774     1.26003675802774     3.78011027408322