CRYSTAL
# Primitive lattice vectors in Angstrom
PRIMVEC
 4.72705667755376 0.00000000000000 0.00000000000000
 -0.00000000000000 4.72705667755376 0.00000000000000
 0.00000000000000 0.00000000000000 4.72705667755376
# Cartesian coordinates in Angstrom.
PRIMCOORD
 10 1
Mg     1.18176416938844     1.18176416938844     1.18176416938844
Mg     3.54529250816532     3.54529250816532     1.18176416938844
Mg     3.54529250816532     1.18176416938844     3.54529250816532
Mg     1.18176416938844     3.54529250816532     3.54529250816532
O     2.36352833877688     0.00000000000000     0.00000000000000
O     0.00000000000000     2.36352833877688     0.00000000000000
O     0.00000000000000     0.00000000000000     2.36352833877688
O     2.36352833877688     2.36352833877688     0.00000000000000
O     2.36352833877688     0.00000000000000     2.36352833877688
O     0.00000000000000     2.36352833877688     2.36352833877688