CRYSTAL
# Primitive lattice vectors in Angstrom
PRIMVEC
 2.95878663781416 0.00000000000000 1.70825626181667
 0.98626221260472 2.78957079424338 1.70825626181667
 0.00000000000000 0.00000000000000 3.41651252363334
# Cartesian coordinates in Angstrom.
PRIMCOORD
 3 1
Mg     0.00000000000000     0.00000000000000     0.00000000000000
O     0.98626221260472     0.69739269856085     1.70825626181667
O     2.95878663781416     2.09217809568254     5.12476878545002