CRYSTAL
# Primitive lattice vectors in Angstrom
PRIMVEC
 4.74280492598424 0.00000000000000 0.00000000000000
 -0.00000000000000 4.74280492598424 0.00000000000000
 0.00000000000000 0.00000000000000 4.74280492598424
# Cartesian coordinates in Angstrom.
PRIMCOORD
 14 1
Mn     0.00000000000000     0.00000000000000     0.00000000000000
Mn     2.37140246299212     2.37140246299212     0.00000000000000
Mn     2.37140246299212     0.00000000000000     2.37140246299212
Mn     0.00000000000000     2.37140246299212     2.37140246299212
O     2.37140246299212     0.00000000000000     0.00000000000000
O     0.00000000000000     2.37140246299212     0.00000000000000
O     0.00000000000000     0.00000000000000     2.37140246299212
O     2.37140246299212     2.37140246299212     2.37140246299212
O     3.55710369448818     3.55710369448818     1.18570123149606
O     3.55710369448818     1.18570123149606     3.55710369448818
O     1.18570123149606     3.55710369448818     3.55710369448818
O     3.55710369448818     1.18570123149606     1.18570123149606
O     1.18570123149606     3.55710369448818     1.18570123149606
O     1.18570123149606     1.18570123149606     3.55710369448818