CRYSTAL
# Primitive lattice vectors in Angstrom
PRIMVEC
 3.50504113534929 0.00000000000000 0.00000000000000
 -0.00000000000000 3.50504113534929 0.00000000000000
 0.00000000000000 0.00000000000000 3.50504113534929
# Cartesian coordinates in Angstrom.
PRIMCOORD
 4 1
Mn     0.00000000000000     0.00000000000000     0.00000000000000
O     1.75252056767464     0.00000000000000     0.00000000000000
O     0.00000000000000     1.75252056767464     0.00000000000000
O     0.00000000000000     0.00000000000000     1.75252056767464