CRYSTAL
# Primitive lattice vectors in Angstrom
PRIMVEC
 4.42633992151394 0.00000000000000 0.00000000000000
 -0.00000000000000 4.42633992151394 0.00000000000000
 0.00000000000000 0.00000000000000 4.42633992151394
# Cartesian coordinates in Angstrom.
PRIMCOORD
 10 1
Mn     1.10658498037848     1.10658498037848     1.10658498037848
Mn     3.31975494113546     3.31975494113546     1.10658498037848
Mn     3.31975494113546     1.10658498037848     3.31975494113546
Mn     1.10658498037848     3.31975494113546     3.31975494113546
O     2.21316996075698     0.00000000000000     0.00000000000000
O     0.00000000000000     2.21316996075698     0.00000000000000
O     0.00000000000000     0.00000000000000     2.21316996075698
O     2.21316996075698     2.21316996075698     0.00000000000000
O     2.21316996075698     0.00000000000000     2.21316996075698
O     0.00000000000000     2.21316996075698     2.21316996075698