CRYSTAL
# Primitive lattice vectors in Angstrom
PRIMVEC
 2.92364128568136 0.00000000000000 1.68796508330204
 0.97454709522712 2.75643543848300 1.68796508330204
 0.00000000000000 0.00000000000000 3.37593016660408
# Cartesian coordinates in Angstrom.
PRIMCOORD
 3 1
Mn     0.97454709522712     0.68910885962075     1.68796508330204
Mn     2.92364128568136     2.06732657886225     5.06389524990612
O     0.00000000000000     0.00000000000000     0.00000000000000