CRYSTAL
# Primitive lattice vectors in Angstrom
PRIMVEC
 2.76546735777289 0.00000000000000 1.59664332344530
 0.92182245259096 2.60730762910834 1.59664332344530
 0.00000000000000 0.00000000000000 3.19328664689060
# Cartesian coordinates in Angstrom.
PRIMCOORD
 3 1
Mn     0.00000000000000     0.00000000000000     0.00000000000000
O     0.92182245259096     0.65182690727709     1.59664332344530
O     2.76546735777289     1.95548072183126     4.78992997033591