CRYSTAL
# Primitive lattice vectors in Angstrom
PRIMVEC
 2.44812319484711 0.00000000000000 1.41342458555434
 0.81604106494904 2.30811268300862 1.41342458555434
 0.00000000000000 0.00000000000000 2.82684917110869
# Cartesian coordinates in Angstrom.
PRIMCOORD
 2 1
Mn     0.00000000000000     0.00000000000000     0.00000000000000
O     1.63208212989807     1.15405634150431     2.82684917110869