CRYSTAL
# Primitive lattice vectors in Angstrom
PRIMVEC
 2.64616868865267 0.00000000000000 1.52776620471477
 0.88205622955089 2.49483176521309 1.52776620471477
 0.00000000000000 0.00000000000000 3.05553240942955
# Cartesian coordinates in Angstrom.
PRIMCOORD
 2 1
Mo     0.00000000000000     0.00000000000000     0.00000000000000
O     1.76411245910178     1.24741588260654     3.05553240942955