CRYSTAL
# Primitive lattice vectors in Angstrom
PRIMVEC
 2.95555490570674 0.00000000000000 1.70639042041450
 0.98518496856891 2.78652388799254 1.70639042041450
 0.00000000000000 0.00000000000000 3.41278084082901
# Cartesian coordinates in Angstrom.
PRIMCOORD
 3 1
Mo     0.00000000000000     0.00000000000000     0.00000000000000
O     0.98518496856891     0.69663097199813     1.70639042041450
O     2.95555490570674     2.08989291599440     5.11917126124352