CRYSTAL
# Primitive lattice vectors in Angstrom
PRIMVEC
 4.75296147561732 0.00000000000000 0.00000000000000
 -0.00000000000000 4.75296147561732 0.00000000000000
 0.00000000000000 0.00000000000000 4.75296147561732
# Cartesian coordinates in Angstrom.
PRIMCOORD
 10 1
Mo     1.18824036890433     1.18824036890433     1.18824036890433
Mo     3.56472110671299     3.56472110671299     1.18824036890433
Mo     3.56472110671299     1.18824036890433     3.56472110671299
Mo     1.18824036890433     3.56472110671299     3.56472110671299
O     2.37648073780866     0.00000000000000     0.00000000000000
O     0.00000000000000     2.37648073780866     0.00000000000000
O     0.00000000000000     0.00000000000000     2.37648073780866
O     2.37648073780866     2.37648073780866     0.00000000000000
O     2.37648073780866     0.00000000000000     2.37648073780866
O     0.00000000000000     2.37648073780866     2.37648073780866