CRYSTAL
# Primitive lattice vectors in Angstrom
PRIMVEC
 3.76497809088430 0.00000000000000 0.00000000000000
 -0.00000000000000 3.76497809088430 0.00000000000000
 0.00000000000000 0.00000000000000 3.76497809088430
# Cartesian coordinates in Angstrom.
PRIMCOORD
 4 1
Mo     0.00000000000000     0.00000000000000     0.00000000000000
O     1.88248904544214     0.00000000000000     0.00000000000000
O     0.00000000000000     1.88248904544214     0.00000000000000
O     0.00000000000000     0.00000000000000     1.88248904544214