CRYSTAL
# Primitive lattice vectors in Angstrom
PRIMVEC
 3.24752899942777 0.00000000000000 1.87496174202074
 1.08250966647592 3.06179970346045 1.87496174202074
 0.00000000000000 0.00000000000000 3.74992348404148
# Cartesian coordinates in Angstrom.
PRIMCOORD
 3 1
Mo     1.08250966647592     0.76544992586511     1.87496174202074
Mo     3.24752899942777     2.29634977759534     5.62488522606221
O     0.00000000000000     0.00000000000000     0.00000000000000