CRYSTAL
# Primitive lattice vectors in Angstrom
PRIMVEC
 4.91080486930525 0.00000000000000 0.00000000000000
 -0.00000000000000 4.91080486930525 0.00000000000000
 0.00000000000000 0.00000000000000 4.91080486930525
# Cartesian coordinates in Angstrom.
PRIMCOORD
 14 1
Mo     0.00000000000000     0.00000000000000     0.00000000000000
Mo     2.45540243465262     2.45540243465262     0.00000000000000
Mo     2.45540243465262     0.00000000000000     2.45540243465262
Mo     0.00000000000000     2.45540243465262     2.45540243465262
O     2.45540243465262     0.00000000000000     0.00000000000000
O     0.00000000000000     2.45540243465262     0.00000000000000
O     0.00000000000000     0.00000000000000     2.45540243465262
O     2.45540243465262     2.45540243465262     2.45540243465262
O     3.68310365197894     3.68310365197894     1.22770121732631
O     3.68310365197894     1.22770121732631     3.68310365197894
O     1.22770121732631     3.68310365197894     3.68310365197894
O     3.68310365197894     1.22770121732631     1.22770121732631
O     1.22770121732631     3.68310365197894     1.22770121732631
O     1.22770121732631     1.22770121732631     3.68310365197894