CRYSTAL
# Primitive lattice vectors in Angstrom
PRIMVEC
 4.71017967835541 0.00000000000000 0.00000000000000
 -0.00000000000000 4.71017967835541 0.00000000000000
 0.00000000000000 0.00000000000000 4.71017967835541
# Cartesian coordinates in Angstrom.
PRIMCOORD
 14 1
N     0.00000000000000     0.00000000000000     0.00000000000000
N     2.35508983917771     2.35508983917771     0.00000000000000
N     2.35508983917771     0.00000000000000     2.35508983917771
N     0.00000000000000     2.35508983917771     2.35508983917771
O     2.35508983917771     0.00000000000000     0.00000000000000
O     0.00000000000000     2.35508983917771     0.00000000000000
O     0.00000000000000     0.00000000000000     2.35508983917771
O     2.35508983917771     2.35508983917771     2.35508983917771
O     3.53263475876656     3.53263475876656     1.17754491958885
O     3.53263475876656     1.17754491958885     3.53263475876656
O     1.17754491958885     3.53263475876656     3.53263475876656
O     3.53263475876656     1.17754491958885     1.17754491958885
O     1.17754491958885     3.53263475876656     1.17754491958885
O     1.17754491958885     1.17754491958885     3.53263475876656