CRYSTAL
# Primitive lattice vectors in Angstrom
PRIMVEC
 4.38788759192852 0.00000000000000 0.00000000000000
 -0.00000000000000 4.38788759192852 0.00000000000000
 0.00000000000000 0.00000000000000 4.38788759192852
# Cartesian coordinates in Angstrom.
PRIMCOORD
 10 1
N     1.09697189798213     1.09697189798213     1.09697189798213
N     3.29091569394639     3.29091569394639     1.09697189798213
N     3.29091569394639     1.09697189798213     3.29091569394639
N     1.09697189798213     3.29091569394639     3.29091569394639
O     2.19394379596426     0.00000000000000     0.00000000000000
O     0.00000000000000     2.19394379596426     0.00000000000000
O     0.00000000000000     0.00000000000000     2.19394379596426
O     2.19394379596426     2.19394379596426     0.00000000000000
O     2.19394379596426     0.00000000000000     2.19394379596426
O     0.00000000000000     2.19394379596426     2.19394379596426