CRYSTAL
# Primitive lattice vectors in Angstrom
PRIMVEC
 2.82521739957951 0.00000000000000 1.63114002616645
 0.94173913319317 2.66364050875853 1.63114002616645
 0.00000000000000 0.00000000000000 3.26228005233289
# Cartesian coordinates in Angstrom.
PRIMCOORD
 3 1
N     0.94173913319317     0.66591012718963     1.63114002616645
N     2.82521739957951     1.99773038156890     4.89342007849934
O     0.00000000000000     0.00000000000000     0.00000000000000