CRYSTAL
# Primitive lattice vectors in Angstrom
PRIMVEC
 3.30716097511474 0.00000000000000 0.00000000000000
 -0.00000000000000 3.30716097511474 0.00000000000000
 0.00000000000000 0.00000000000000 3.30716097511474
# Cartesian coordinates in Angstrom.
PRIMCOORD
 4 1
N     0.00000000000000     0.00000000000000     0.00000000000000
O     1.65358048755737     0.00000000000000     0.00000000000000
O     0.00000000000000     1.65358048755737     0.00000000000000
O     0.00000000000000     0.00000000000000     1.65358048755737