CRYSTAL
# Primitive lattice vectors in Angstrom
PRIMVEC
 2.35061435331340 0.00000000000000 1.35712782964649
 0.78353811777113 2.21618046557644 1.35712782964649
 0.00000000000000 0.00000000000000 2.71425565929297
# Cartesian coordinates in Angstrom.
PRIMCOORD
 2 1
N     0.00000000000000     0.00000000000000     0.00000000000000
O     1.56707623554226     1.10809023278822     2.71425565929297