CRYSTAL
# Primitive lattice vectors in Angstrom
PRIMVEC
 2.78472227563861 0.00000000000000 1.60776015545830
 0.92824075854620 2.62546133976706 1.60776015545830
 0.00000000000000 0.00000000000000 3.21552031091659
# Cartesian coordinates in Angstrom.
PRIMCOORD
 3 1
N     0.00000000000000     0.00000000000000     0.00000000000000
O     0.92824075854620     0.65636533494177     1.60776015545830
O     2.78472227563861     1.96909600482530     4.82328046637490