CRYSTAL
# Primitive lattice vectors in Angstrom
PRIMVEC
 2.81986217400385 0.00000000000000 1.62804818523876
 0.93995405800128 2.65859155366608 1.62804818523876
 0.00000000000000 0.00000000000000 3.25609637047752
# Cartesian coordinates in Angstrom.
PRIMCOORD
 2 1
Na     0.00000000000000     0.00000000000000     0.00000000000000
O     1.87990811600257     1.32929577683304     3.25609637047752