CRYSTAL
# Primitive lattice vectors in Angstrom
PRIMVEC
 4.99324602491607 0.00000000000000 0.00000000000000
 -0.00000000000000 4.99324602491607 0.00000000000000
 0.00000000000000 0.00000000000000 4.99324602491607
# Cartesian coordinates in Angstrom.
PRIMCOORD
 10 1
Na     1.24831150622902     1.24831150622902     1.24831150622902
Na     3.74493451868705     3.74493451868705     1.24831150622902
Na     3.74493451868705     1.24831150622902     3.74493451868705
Na     1.24831150622902     3.74493451868705     3.74493451868705
O     2.49662301245804     0.00000000000000     0.00000000000000
O     0.00000000000000     2.49662301245804     0.00000000000000
O     0.00000000000000     0.00000000000000     2.49662301245804
O     2.49662301245804     2.49662301245804     0.00000000000000
O     2.49662301245804     0.00000000000000     2.49662301245804
O     0.00000000000000     2.49662301245804     2.49662301245804