CRYSTAL
# Primitive lattice vectors in Angstrom
PRIMVEC
 4.10819463414898 0.00000000000000 0.00000000000000
 -0.00000000000000 4.10819463414898 0.00000000000000
 0.00000000000000 0.00000000000000 4.10819463414898
# Cartesian coordinates in Angstrom.
PRIMCOORD
 4 1
Na     0.00000000000000     0.00000000000000     0.00000000000000
O     2.05409731707448     0.00000000000000     0.00000000000000
O     0.00000000000000     2.05409731707448     0.00000000000000
O     0.00000000000000     0.00000000000000     2.05409731707448