CRYSTAL
# Primitive lattice vectors in Angstrom
PRIMVEC
 3.08376708953804 0.00000000000000 1.78041375926290
 1.02792236317935 2.90740349414967 1.78041375926290
 0.00000000000000 0.00000000000000 3.56082751852579
# Cartesian coordinates in Angstrom.
PRIMCOORD
 3 1
Na     0.00000000000000     0.00000000000000     0.00000000000000
O     1.02792236317935     0.72685087353742     1.78041375926290
O     3.08376708953804     2.18055262061226     5.34124127778870