CRYSTAL
# Primitive lattice vectors in Angstrom
PRIMVEC
 3.31003044813068 0.00000000000000 1.91104697025411
 1.10334348271023 3.12072663440954 1.91104697025411
 0.00000000000000 0.00000000000000 3.82209394050822
# Cartesian coordinates in Angstrom.
PRIMCOORD
 3 1
Na     1.10334348271023     0.78018165860238     1.91104697025411
Na     3.31003044813068     2.34054497580716     5.73314091076233
O     0.00000000000000     0.00000000000000     0.00000000000000