CRYSTAL
# Primitive lattice vectors in Angstrom
PRIMVEC
 5.09469216575206 0.00000000000000 0.00000000000000
 -0.00000000000000 5.09469216575206 0.00000000000000
 0.00000000000000 0.00000000000000 5.09469216575206
# Cartesian coordinates in Angstrom.
PRIMCOORD
 14 1
Na     0.00000000000000     0.00000000000000     0.00000000000000
Na     2.54734608287603     2.54734608287603     0.00000000000000
Na     2.54734608287603     0.00000000000000     2.54734608287603
Na     0.00000000000000     2.54734608287603     2.54734608287603
O     2.54734608287603     0.00000000000000     0.00000000000000
O     0.00000000000000     2.54734608287603     0.00000000000000
O     0.00000000000000     0.00000000000000     2.54734608287603
O     2.54734608287603     2.54734608287603     2.54734608287603
O     3.82101912431404     3.82101912431404     1.27367304143801
O     3.82101912431404     1.27367304143801     3.82101912431404
O     1.27367304143801     3.82101912431404     3.82101912431404
O     3.82101912431404     1.27367304143801     1.27367304143801
O     1.27367304143801     3.82101912431404     1.27367304143801
O     1.27367304143801     1.27367304143801     3.82101912431404