CRYSTAL
# Primitive lattice vectors in Angstrom
PRIMVEC
 2.68257759150911 0.00000000000000 1.54878689457984
 0.89419253050304 2.52915840802023 1.54878689457984
 0.00000000000000 0.00000000000000 3.09757378915968
# Cartesian coordinates in Angstrom.
PRIMCOORD
 2 1
Nb     0.00000000000000     0.00000000000000     0.00000000000000
O     1.78838506100608     1.26457920401011     3.09757378915968