CRYSTAL
# Primitive lattice vectors in Angstrom
PRIMVEC
 3.00706793799180 0.00000000000000 1.73613148347105
 1.00235597933060 2.83509084059020 1.73613148347105
 0.00000000000000 0.00000000000000 3.47226296694211
# Cartesian coordinates in Angstrom.
PRIMCOORD
 3 1
Nb     0.00000000000000     0.00000000000000     0.00000000000000
O     1.00235597933060     0.70877271014755     1.73613148347105
O     3.00706793799180     2.12631813044265     5.20839445041317