CRYSTAL
# Primitive lattice vectors in Angstrom
PRIMVEC
 3.33774115873661 0.00000000000000 1.92704575648188
 1.11258038624553 3.14685254291747 1.92704575648188
 0.00000000000000 0.00000000000000 3.85409151296376
# Cartesian coordinates in Angstrom.
PRIMCOORD
 3 1
Nb     1.11258038624553     0.78671313572937     1.92704575648188
Nb     3.33774115873661     2.36013940718810     5.78113726944563
O     0.00000000000000     0.00000000000000     0.00000000000000