CRYSTAL
# Primitive lattice vectors in Angstrom
PRIMVEC
 3.89506164179917 0.00000000000000 0.00000000000000
 -0.00000000000000 3.89506164179917 0.00000000000000
 0.00000000000000 0.00000000000000 3.89506164179917
# Cartesian coordinates in Angstrom.
PRIMCOORD
 4 1
Nb     0.00000000000000     0.00000000000000     0.00000000000000
O     1.94753082089958     0.00000000000000     0.00000000000000
O     0.00000000000000     1.94753082089958     0.00000000000000
O     0.00000000000000     0.00000000000000     1.94753082089958