CRYSTAL
# Primitive lattice vectors in Angstrom
PRIMVEC
 4.84706495499245 0.00000000000000 0.00000000000000
 -0.00000000000000 4.84706495499245 0.00000000000000
 0.00000000000000 0.00000000000000 4.84706495499245
# Cartesian coordinates in Angstrom.
PRIMCOORD
 10 1
Nb     1.21176623874811     1.21176623874811     1.21176623874811
Nb     3.63529871624434     3.63529871624434     1.21176623874811
Nb     3.63529871624434     1.21176623874811     3.63529871624434
Nb     1.21176623874811     3.63529871624434     3.63529871624434
O     2.42353247749623     0.00000000000000     0.00000000000000
O     0.00000000000000     2.42353247749623     0.00000000000000
O     0.00000000000000     0.00000000000000     2.42353247749623
O     2.42353247749623     2.42353247749623     0.00000000000000
O     2.42353247749623     0.00000000000000     2.42353247749623
O     0.00000000000000     2.42353247749623     2.42353247749623