CRYSTAL
# Primitive lattice vectors in Angstrom
PRIMVEC
 4.98926299863359 0.00000000000000 0.00000000000000
 -0.00000000000000 4.98926299863359 0.00000000000000
 0.00000000000000 0.00000000000000 4.98926299863359
# Cartesian coordinates in Angstrom.
PRIMCOORD
 14 1
Nb     0.00000000000000     0.00000000000000     0.00000000000000
Nb     2.49463149931680     2.49463149931680     0.00000000000000
Nb     2.49463149931680     0.00000000000000     2.49463149931680
Nb     0.00000000000000     2.49463149931680     2.49463149931680
O     2.49463149931680     0.00000000000000     0.00000000000000
O     0.00000000000000     2.49463149931680     0.00000000000000
O     0.00000000000000     0.00000000000000     2.49463149931680
O     2.49463149931680     2.49463149931680     2.49463149931680
O     3.74194724897520     3.74194724897520     1.24731574965840
O     3.74194724897520     1.24731574965840     3.74194724897520
O     1.24731574965840     3.74194724897520     3.74194724897520
O     3.74194724897520     1.24731574965840     1.24731574965840
O     1.24731574965840     3.74194724897520     1.24731574965840
O     1.24731574965840     1.24731574965840     3.74194724897520