CRYSTAL
# Primitive lattice vectors in Angstrom
PRIMVEC
 5.27175865425913 0.00000000000000 0.00000000000000
 -0.00000000000000 5.27175865425913 0.00000000000000
 0.00000000000000 0.00000000000000 5.27175865425913
# Cartesian coordinates in Angstrom.
PRIMCOORD
 10 1
Nd     1.31793966356478     1.31793966356478     1.31793966356478
Nd     3.95381899069435     3.95381899069435     1.31793966356478
Nd     3.95381899069435     1.31793966356478     3.95381899069435
Nd     1.31793966356478     3.95381899069435     3.95381899069435
O     2.63587932712957     0.00000000000000     0.00000000000000
O     0.00000000000000     2.63587932712957     0.00000000000000
O     0.00000000000000     0.00000000000000     2.63587932712957
O     2.63587932712957     2.63587932712957     0.00000000000000
O     2.63587932712957     0.00000000000000     2.63587932712957
O     0.00000000000000     2.63587932712957     2.63587932712957