CRYSTAL
# Primitive lattice vectors in Angstrom
PRIMVEC
 5.28573831882022 0.00000000000000 0.00000000000000
 -0.00000000000000 5.28573831882022 0.00000000000000
 0.00000000000000 0.00000000000000 5.28573831882022
# Cartesian coordinates in Angstrom.
PRIMCOORD
 14 1
Nd     0.00000000000000     0.00000000000000     0.00000000000000
Nd     2.64286915941011     2.64286915941011     0.00000000000000
Nd     2.64286915941011     0.00000000000000     2.64286915941011
Nd     0.00000000000000     2.64286915941011     2.64286915941011
O     2.64286915941011     0.00000000000000     0.00000000000000
O     0.00000000000000     2.64286915941011     0.00000000000000
O     0.00000000000000     0.00000000000000     2.64286915941011
O     2.64286915941011     2.64286915941011     2.64286915941011
O     3.96430373911517     3.96430373911517     1.32143457970506
O     3.96430373911517     1.32143457970506     3.96430373911517
O     1.32143457970506     3.96430373911517     3.96430373911517
O     3.96430373911517     1.32143457970506     1.32143457970506
O     1.32143457970506     3.96430373911517     1.32143457970506
O     1.32143457970506     1.32143457970506     3.96430373911517