CRYSTAL
# Primitive lattice vectors in Angstrom
PRIMVEC
 3.22720232644755 0.00000000000000 1.86322613190388
 1.07573410881585 3.04263553238942 1.86322613190388
 0.00000000000000 0.00000000000000 3.72645226380776
# Cartesian coordinates in Angstrom.
PRIMCOORD
 3 1
Nd     0.00000000000000     0.00000000000000     0.00000000000000
O     1.07573410881585     0.76065888309736     1.86322613190388
O     3.22720232644755     2.28197664929207     5.58967839571164