CRYSTAL
# Primitive lattice vectors in Angstrom
PRIMVEC
 4.08109246776653 0.00000000000000 0.00000000000000
 -0.00000000000000 4.08109246776653 0.00000000000000
 0.00000000000000 0.00000000000000 4.08109246776653
# Cartesian coordinates in Angstrom.
PRIMCOORD
 4 1
Nd     0.00000000000000     0.00000000000000     0.00000000000000
O     2.04054623388326     0.00000000000000     0.00000000000000
O     0.00000000000000     2.04054623388326     0.00000000000000
O     0.00000000000000     0.00000000000000     2.04054623388326