CRYSTAL
# Primitive lattice vectors in Angstrom
PRIMVEC
 2.93216006304066 0.00000000000000 1.69288340170359
 0.97738668768022 2.76446701880057 1.69288340170359
 0.00000000000000 0.00000000000000 3.38576680340718
# Cartesian coordinates in Angstrom.
PRIMCOORD
 2 1
Nd     0.00000000000000     0.00000000000000     0.00000000000000
O     1.95477337536044     1.38223350940028     3.38576680340718