CRYSTAL
# Primitive lattice vectors in Angstrom
PRIMVEC
 3.48384477433317 0.00000000000000 2.01139871827613
 1.16128159144439 3.28460035270973 2.01139871827613
 0.00000000000000 0.00000000000000 4.02279743655225
# Cartesian coordinates in Angstrom.
PRIMCOORD
 3 1
Nd     1.16128159144439     0.82115008817743     2.01139871827613
Nd     3.48384477433317     2.46345026453230     6.03419615482838
O     0.00000000000000     0.00000000000000     0.00000000000000