CRYSTAL
# Primitive lattice vectors in Angstrom
PRIMVEC
 2.97250216862080 0.00000000000000 1.71617492721996
 0.99083405620693 2.80250192069798 1.71617492721996
 0.00000000000000 0.00000000000000 3.43234985443993
# Cartesian coordinates in Angstrom.
PRIMCOORD
 2 1
Ne     0.00000000000000     0.00000000000000     0.00000000000000
O     1.98166811241387     1.40125096034899     3.43234985443993