CRYSTAL
# Primitive lattice vectors in Angstrom
PRIMVEC
 5.06816994276890 0.00000000000000 0.00000000000000
 -0.00000000000000 5.06816994276890 0.00000000000000
 0.00000000000000 0.00000000000000 5.06816994276890
# Cartesian coordinates in Angstrom.
PRIMCOORD
 10 1
Ne     1.26704248569222     1.26704248569222     1.26704248569222
Ne     3.80112745707667     3.80112745707667     1.26704248569222
Ne     3.80112745707667     1.26704248569222     3.80112745707667
Ne     1.26704248569222     3.80112745707667     3.80112745707667
O     2.53408497138445     0.00000000000000     0.00000000000000
O     0.00000000000000     2.53408497138445     0.00000000000000
O     0.00000000000000     0.00000000000000     2.53408497138445
O     2.53408497138445     2.53408497138445     0.00000000000000
O     2.53408497138445     0.00000000000000     2.53408497138445
O     0.00000000000000     2.53408497138445     2.53408497138445