CRYSTAL
# Primitive lattice vectors in Angstrom
PRIMVEC
 4.95569067990904 0.00000000000000 0.00000000000000
 -0.00000000000000 4.95569067990904 0.00000000000000
 0.00000000000000 0.00000000000000 4.95569067990904
# Cartesian coordinates in Angstrom.
PRIMCOORD
 14 1
Ne     0.00000000000000     0.00000000000000     0.00000000000000
Ne     2.47784533995452     2.47784533995452     0.00000000000000
Ne     2.47784533995452     0.00000000000000     2.47784533995452
Ne     0.00000000000000     2.47784533995452     2.47784533995452
O     2.47784533995452     0.00000000000000     0.00000000000000
O     0.00000000000000     2.47784533995452     0.00000000000000
O     0.00000000000000     0.00000000000000     2.47784533995452
O     2.47784533995452     2.47784533995452     2.47784533995452
O     3.71676800993178     3.71676800993178     1.23892266997726
O     3.71676800993178     1.23892266997726     3.71676800993178
O     1.23892266997726     3.71676800993178     3.71676800993178
O     3.71676800993178     1.23892266997726     1.23892266997726
O     1.23892266997726     3.71676800993178     1.23892266997726
O     1.23892266997726     1.23892266997726     3.71676800993178