CRYSTAL
# Primitive lattice vectors in Angstrom
PRIMVEC
 3.59324883212541 0.00000000000000 2.07456318049292
 1.19774961070847 3.38774748758203 2.07456318049292
 0.00000000000000 0.00000000000000 4.14912636098583
# Cartesian coordinates in Angstrom.
PRIMCOORD
 3 1
Ne     1.19774961070847     0.84693687189550     2.07456318049292
Ne     3.59324883212541     2.54081061568652     6.22368954147875
O     0.00000000000000     0.00000000000000     0.00000000000000