CRYSTAL
# Primitive lattice vectors in Angstrom
PRIMVEC
 3.97136770421718 0.00000000000000 0.00000000000000
 -0.00000000000000 3.97136770421718 0.00000000000000
 0.00000000000000 0.00000000000000 3.97136770421718
# Cartesian coordinates in Angstrom.
PRIMCOORD
 4 1
Ne     0.00000000000000     0.00000000000000     0.00000000000000
O     1.98568385210859     0.00000000000000     0.00000000000000
O     0.00000000000000     1.98568385210859     0.00000000000000
O     0.00000000000000     0.00000000000000     1.98568385210859