CRYSTAL
# Primitive lattice vectors in Angstrom
PRIMVEC
 3.08506538145426 0.00000000000000 1.78116332845021
 1.02835512715142 2.90862753550689 1.78116332845021
 0.00000000000000 0.00000000000000 3.56232665690042
# Cartesian coordinates in Angstrom.
PRIMCOORD
 3 1
Ne     0.00000000000000     0.00000000000000     0.00000000000000
O     1.02835512715142     0.72715688387672     1.78116332845021
O     3.08506538145426     2.18147065163017     5.34348998535064