CRYSTAL
# Primitive lattice vectors in Angstrom
PRIMVEC
 2.81577773109474 0.00000000000000 1.62569003102570
 0.93859257703158 2.65474070396155 1.62569003102570
 0.00000000000000 0.00000000000000 3.25138006205140
# Cartesian coordinates in Angstrom.
PRIMCOORD
 3 1
Ni     0.00000000000000     0.00000000000000     0.00000000000000
O     0.93859257703158     0.66368517599039     1.62569003102570
O     2.81577773109474     1.99105552797116     4.87707009307711