CRYSTAL
# Primitive lattice vectors in Angstrom
PRIMVEC
 2.97818472173258 0.00000000000000 1.71945575078874
 0.99272824057752 2.80785948315104 1.71945575078874
 0.00000000000000 0.00000000000000 3.43891150157748
# Cartesian coordinates in Angstrom.
PRIMCOORD
 3 1
Ni     0.99272824057752     0.70196487078776     1.71945575078874
Ni     2.97818472173258     2.10589461236328     5.15836725236621
O     0.00000000000000     0.00000000000000     0.00000000000000