CRYSTAL
# Primitive lattice vectors in Angstrom
PRIMVEC
 3.56926601642282 0.00000000000000 0.00000000000000
 -0.00000000000000 3.56926601642282 0.00000000000000
 0.00000000000000 0.00000000000000 3.56926601642282
# Cartesian coordinates in Angstrom.
PRIMCOORD
 4 1
Ni     0.00000000000000     0.00000000000000     0.00000000000000
O     1.78463300821140     0.00000000000000     0.00000000000000
O     0.00000000000000     1.78463300821140     0.00000000000000
O     0.00000000000000     0.00000000000000     1.78463300821140