CRYSTAL
# Primitive lattice vectors in Angstrom
PRIMVEC
 4.80956447209645 0.00000000000000 0.00000000000000
 -0.00000000000000 4.80956447209645 0.00000000000000
 0.00000000000000 0.00000000000000 4.80956447209645
# Cartesian coordinates in Angstrom.
PRIMCOORD
 14 1
Ni     0.00000000000000     0.00000000000000     0.00000000000000
Ni     2.40478223604822     2.40478223604822     0.00000000000000
Ni     2.40478223604822     0.00000000000000     2.40478223604822
Ni     0.00000000000000     2.40478223604822     2.40478223604822
O     2.40478223604822     0.00000000000000     0.00000000000000
O     0.00000000000000     2.40478223604822     0.00000000000000
O     0.00000000000000     0.00000000000000     2.40478223604822
O     2.40478223604822     2.40478223604822     2.40478223604822
O     3.60717335407234     3.60717335407234     1.20239111802411
O     3.60717335407234     1.20239111802411     3.60717335407234
O     1.20239111802411     3.60717335407234     3.60717335407234
O     3.60717335407234     1.20239111802411     1.20239111802411
O     1.20239111802411     3.60717335407234     1.20239111802411
O     1.20239111802411     1.20239111802411     3.60717335407234