CRYSTAL
# Primitive lattice vectors in Angstrom
PRIMVEC
 4.46415362286704 0.00000000000000 0.00000000000000
 -0.00000000000000 4.46415362286704 0.00000000000000
 0.00000000000000 0.00000000000000 4.46415362286704
# Cartesian coordinates in Angstrom.
PRIMCOORD
 10 1
Ni     1.11603840571676     1.11603840571676     1.11603840571676
Ni     3.34811521715028     3.34811521715028     1.11603840571676
Ni     3.34811521715028     1.11603840571676     3.34811521715028
Ni     1.11603840571676     3.34811521715028     3.34811521715028
O     2.23207681143352     0.00000000000000     0.00000000000000
O     0.00000000000000     2.23207681143352     0.00000000000000
O     0.00000000000000     0.00000000000000     2.23207681143352
O     2.23207681143352     2.23207681143352     0.00000000000000
O     2.23207681143352     0.00000000000000     2.23207681143352
O     0.00000000000000     2.23207681143352     2.23207681143352