CRYSTAL
# Primitive lattice vectors in Angstrom
PRIMVEC
 2.47568276200869 0.00000000000000 1.42933610907383
 0.82522758733623 2.33409609211065 1.42933610907383
 0.00000000000000 0.00000000000000 2.85867221814766
# Cartesian coordinates in Angstrom.
PRIMCOORD
 2 1
Ni     0.00000000000000     0.00000000000000     0.00000000000000
O     1.65045517467246     1.16704804605532     2.85867221814766