CRYSTAL
# Primitive lattice vectors in Angstrom
PRIMVEC
 5.33922499592514 0.00000000000000 0.00000000000000
 -0.00000000000000 5.33922499592514 0.00000000000000
 0.00000000000000 0.00000000000000 5.33922499592514
# Cartesian coordinates in Angstrom.
PRIMCOORD
 14 1
No     0.00000000000000     0.00000000000000     0.00000000000000
No     2.66961249796257     2.66961249796257     0.00000000000000
No     2.66961249796257     0.00000000000000     2.66961249796257
No     0.00000000000000     2.66961249796257     2.66961249796257
O     2.66961249796257     0.00000000000000     0.00000000000000
O     0.00000000000000     2.66961249796257     0.00000000000000
O     0.00000000000000     0.00000000000000     2.66961249796257
O     2.66961249796257     2.66961249796257     2.66961249796257
O     4.00441874694386     4.00441874694386     1.33480624898129
O     4.00441874694386     1.33480624898129     4.00441874694386
O     1.33480624898129     4.00441874694386     4.00441874694386
O     4.00441874694386     1.33480624898129     1.33480624898129
O     1.33480624898129     4.00441874694386     1.33480624898129
O     1.33480624898129     1.33480624898129     4.00441874694386