CRYSTAL
# Primitive lattice vectors in Angstrom
PRIMVEC
 5.28207743583248 0.00000000000000 0.00000000000000
 -0.00000000000000 5.28207743583248 0.00000000000000
 0.00000000000000 0.00000000000000 5.28207743583248
# Cartesian coordinates in Angstrom.
PRIMCOORD
 10 1
No     1.32051935895812     1.32051935895812     1.32051935895812
No     3.96155807687436     3.96155807687436     1.32051935895812
No     3.96155807687436     1.32051935895812     3.96155807687436
No     1.32051935895812     3.96155807687436     3.96155807687436
O     2.64103871791625     0.00000000000000     0.00000000000000
O     0.00000000000000     2.64103871791625     0.00000000000000
O     0.00000000000000     0.00000000000000     2.64103871791625
O     2.64103871791625     2.64103871791625     0.00000000000000
O     2.64103871791625     0.00000000000000     2.64103871791625
O     0.00000000000000     2.64103871791625     2.64103871791625