CRYSTAL
# Primitive lattice vectors in Angstrom
PRIMVEC
 3.69828641531022 0.00000000000000 2.13520665741969
 1.23276213843674 3.48677787071459 2.13520665741969
 0.00000000000000 0.00000000000000 4.27041331483939
# Cartesian coordinates in Angstrom.
PRIMCOORD
 3 1
No     1.23276213843674     0.87169446767865     2.13520665741969
No     3.69828641531022     2.61508340303595     6.40561997225908
O     0.00000000000000     0.00000000000000     0.00000000000000