CRYSTAL
# Primitive lattice vectors in Angstrom
PRIMVEC
 4.14590341408147 0.00000000000000 0.00000000000000
 -0.00000000000000 4.14590341408147 0.00000000000000
 0.00000000000000 0.00000000000000 4.14590341408147
# Cartesian coordinates in Angstrom.
PRIMCOORD
 4 1
No     0.00000000000000     0.00000000000000     0.00000000000000
O     2.07295170704073     0.00000000000000     0.00000000000000
O     0.00000000000000     2.07295170704073     0.00000000000000
O     0.00000000000000     0.00000000000000     2.07295170704073