CRYSTAL
# Primitive lattice vectors in Angstrom
PRIMVEC
 3.23487735496201 0.00000000000000 1.86765731168274
 1.07829245165400 3.04987161866725 1.86765731168274
 0.00000000000000 0.00000000000000 3.73531462336547
# Cartesian coordinates in Angstrom.
PRIMCOORD
 3 1
No     0.00000000000000     0.00000000000000     0.00000000000000
O     1.07829245165400     0.76246790466681     1.86765731168274
O     3.23487735496201     2.28740371400044     5.60297193504822