CRYSTAL
# Primitive lattice vectors in Angstrom
PRIMVEC
 2.96308921913256 0.00000000000000 1.71074035829906
 0.98769640637752 2.79362730681251 1.71074035829906
 0.00000000000000 0.00000000000000 3.42148071659811
# Cartesian coordinates in Angstrom.
PRIMCOORD
 2 1
No     0.00000000000000     0.00000000000000     0.00000000000000
O     1.97539281275504     1.39681365340625     3.42148071659811