CRYSTAL
# Primitive lattice vectors in Angstrom
PRIMVEC
 2.86998997511524 0.00000000000000 1.65698948470431
 0.95666332503841 2.70585249778853 1.65698948470431
 0.00000000000000 0.00000000000000 3.31397896940862
# Cartesian coordinates in Angstrom.
PRIMCOORD
 2 1
Np     0.00000000000000     0.00000000000000     0.00000000000000
O     1.91332665007683     1.35292624889426     3.31397896940862