CRYSTAL
# Primitive lattice vectors in Angstrom
PRIMVEC
 3.20211865849271 0.00000000000000 1.84874406945789
 1.06737288616423 3.01898642344556 1.84874406945789
 0.00000000000000 0.00000000000000 3.69748813891577
# Cartesian coordinates in Angstrom.
PRIMCOORD
 3 1
Np     0.00000000000000     0.00000000000000     0.00000000000000
O     1.06737288616423     0.75474660586139     1.84874406945789
O     3.20211865849271     2.26423981758417     5.54623220837367