CRYSTAL
# Primitive lattice vectors in Angstrom
PRIMVEC
 5.19464539399597 0.00000000000000 0.00000000000000
 -0.00000000000000 5.19464539399597 0.00000000000000
 0.00000000000000 0.00000000000000 5.19464539399597
# Cartesian coordinates in Angstrom.
PRIMCOORD
 14 1
Np     0.00000000000000     0.00000000000000     0.00000000000000
Np     2.59732269699799     2.59732269699799     0.00000000000000
Np     2.59732269699799     0.00000000000000     2.59732269699799
Np     0.00000000000000     2.59732269699799     2.59732269699799
O     2.59732269699799     0.00000000000000     0.00000000000000
O     0.00000000000000     2.59732269699799     0.00000000000000
O     0.00000000000000     0.00000000000000     2.59732269699799
O     2.59732269699799     2.59732269699799     2.59732269699799
O     3.89598404549698     3.89598404549698     1.29866134849899
O     3.89598404549698     1.29866134849899     3.89598404549698
O     1.29866134849899     3.89598404549698     3.89598404549698
O     3.89598404549698     1.29866134849899     1.29866134849899
O     1.29866134849899     3.89598404549698     1.29866134849899
O     1.29866134849899     1.29866134849899     3.89598404549698