CRYSTAL
# Primitive lattice vectors in Angstrom
PRIMVEC
 4.06177015502721 0.00000000000000 0.00000000000000
 -0.00000000000000 4.06177015502721 0.00000000000000
 0.00000000000000 0.00000000000000 4.06177015502721
# Cartesian coordinates in Angstrom.
PRIMCOORD
 4 1
Np     0.00000000000000     0.00000000000000     0.00000000000000
O     2.03088507751360     0.00000000000000     0.00000000000000
O     0.00000000000000     2.03088507751360     0.00000000000000
O     0.00000000000000     0.00000000000000     2.03088507751360