CRYSTAL
# Primitive lattice vectors in Angstrom
PRIMVEC
 5.16682679449071 0.00000000000000 0.00000000000000
 -0.00000000000000 5.16682679449071 0.00000000000000
 0.00000000000000 0.00000000000000 5.16682679449071
# Cartesian coordinates in Angstrom.
PRIMCOORD
 10 1
Np     1.29170669862267     1.29170669862267     1.29170669862267
Np     3.87512009586803     3.87512009586803     1.29170669862267
Np     3.87512009586803     1.29170669862267     3.87512009586803
Np     1.29170669862267     3.87512009586803     3.87512009586803
O     2.58341339724536     0.00000000000000     0.00000000000000
O     0.00000000000000     2.58341339724536     0.00000000000000
O     0.00000000000000     0.00000000000000     2.58341339724536
O     2.58341339724536     2.58341339724536     0.00000000000000
O     2.58341339724536     0.00000000000000     2.58341339724536
O     0.00000000000000     2.58341339724536     2.58341339724536