CRYSTAL
# Primitive lattice vectors in Angstrom
PRIMVEC
 3.43039957449439 0.00000000000000 1.98054211776231
 1.14346652483146 3.23421173507257 1.98054211776231
 0.00000000000000 0.00000000000000 3.96108423552463
# Cartesian coordinates in Angstrom.
PRIMCOORD
 3 1
Np     1.14346652483146     0.80855293376814     1.98054211776231
Np     3.43039957449439     2.42565880130443     5.94162635328694
O     0.00000000000000     0.00000000000000     0.00000000000000