CRYSTAL
# Primitive lattice vectors in Angstrom
PRIMVEC
 4.71927361631723 0.00000000000000 0.00000000000000
 -0.00000000000000 4.71927361631723 0.00000000000000
 0.00000000000000 0.00000000000000 4.71927361631723
# Cartesian coordinates in Angstrom.
PRIMCOORD
 14 1
O     0.00000000000000     0.00000000000000     0.00000000000000
O     2.35963680815861     2.35963680815861     0.00000000000000
O     2.35963680815861     0.00000000000000     2.35963680815861
O     0.00000000000000     2.35963680815861     2.35963680815861
O     2.35963680815861     0.00000000000000     0.00000000000000
O     0.00000000000000     2.35963680815861     0.00000000000000
O     0.00000000000000     0.00000000000000     2.35963680815861
O     2.35963680815861     2.35963680815861     2.35963680815861
O     3.53945521223792     3.53945521223792     1.17981840407931
O     3.53945521223792     1.17981840407931     3.53945521223792
O     1.17981840407931     3.53945521223792     3.53945521223792
O     3.53945521223792     1.17981840407931     1.17981840407931
O     1.17981840407931     3.53945521223792     1.17981840407931
O     1.17981840407931     1.17981840407931     3.53945521223792