CRYSTAL
# Primitive lattice vectors in Angstrom
PRIMVEC
 4.44851670359831 0.00000000000000 0.00000000000000
 -0.00000000000000 4.44851670359831 0.00000000000000
 0.00000000000000 0.00000000000000 4.44851670359831
# Cartesian coordinates in Angstrom.
PRIMCOORD
 10 1
O     1.11212917589958     1.11212917589958     1.11212917589958
O     3.33638752769874     3.33638752769874     1.11212917589958
O     3.33638752769874     1.11212917589958     3.33638752769874
O     1.11212917589958     3.33638752769874     3.33638752769874
O     2.22425835179916     0.00000000000000     0.00000000000000
O     0.00000000000000     2.22425835179916     0.00000000000000
O     0.00000000000000     0.00000000000000     2.22425835179916
O     2.22425835179916     2.22425835179916     0.00000000000000
O     2.22425835179916     0.00000000000000     2.22425835179916
O     0.00000000000000     2.22425835179916     2.22425835179916