CRYSTAL
# Primitive lattice vectors in Angstrom
PRIMVEC
 3.74568995153387 0.00000000000000 0.00000000000000
 -0.00000000000000 3.74568995153387 0.00000000000000
 0.00000000000000 0.00000000000000 3.74568995153387
# Cartesian coordinates in Angstrom.
PRIMCOORD
 14 1
O     0.00000000000000     0.00000000000000     0.00000000000000
O     1.87284497576693     1.87284497576693     0.00000000000000
O     1.87284497576693     0.00000000000000     1.87284497576693
O     0.00000000000000     1.87284497576693     1.87284497576693
O     1.87284497576693     0.00000000000000     0.00000000000000
O     0.00000000000000     1.87284497576693     0.00000000000000
O     0.00000000000000     0.00000000000000     1.87284497576693
O     1.87284497576693     1.87284497576693     1.87284497576693
O     2.80926746365040     2.80926746365040     0.93642248788347
O     2.80926746365040     0.93642248788347     2.80926746365040
O     0.93642248788347     2.80926746365040     2.80926746365040
O     2.80926746365040     0.93642248788347     0.93642248788347
O     0.93642248788347     2.80926746365040     0.93642248788347
O     0.93642248788347     0.93642248788347     2.80926746365040