CRYSTAL
# Primitive lattice vectors in Angstrom
PRIMVEC
 2.82984769430488 0.00000000000000 1.63381332807256
 0.94328256476829 2.66800599249079 1.63381332807256
 0.00000000000000 0.00000000000000 3.26762665614513
# Cartesian coordinates in Angstrom.
PRIMCOORD
 3 1
O     0.94328256476829     0.66700149812270     1.63381332807256
O     2.82984769430488     2.00100449436810     4.90143998421769
O     0.00000000000000     0.00000000000000     0.00000000000000