CRYSTAL
# Primitive lattice vectors in Angstrom
PRIMVEC
 2.82984769636299 0.00000000000000 1.63381332926081
 0.94328256545433 2.66800599443120 1.63381332926081
 0.00000000000000 0.00000000000000 3.26762665852162
# Cartesian coordinates in Angstrom.
PRIMCOORD
 3 1
O     0.00000000000000     0.00000000000000     0.00000000000000
O     0.94328256545433     0.66700149860780     1.63381332926081
O     2.82984769636299     2.00100449582340     4.90143998778244