CRYSTAL
# Primitive lattice vectors in Angstrom
PRIMVEC
 2.37633674382262 0.00000000000000 1.37197865873119
 0.79211224794087 2.24043176791965 1.37197865873119
 0.00000000000000 0.00000000000000 2.74395731746237
# Cartesian coordinates in Angstrom.
PRIMCOORD
 2 1
O     0.00000000000000     0.00000000000000     0.00000000000000
O     1.58422449588175     1.12021588395982     2.74395731746237