CRYSTAL
# Primitive lattice vectors in Angstrom
PRIMVEC
 3.43254844486406 0.00000000000000 0.00000000000000
 -0.00000000000000 3.43254844486406 0.00000000000000
 0.00000000000000 0.00000000000000 3.43254844486406
# Cartesian coordinates in Angstrom.
PRIMCOORD
 4 1
O     0.00000000000000     0.00000000000000     0.00000000000000
O     1.71627422243203     0.00000000000000     0.00000000000000
O     0.00000000000000     1.71627422243203     0.00000000000000
O     0.00000000000000     0.00000000000000     1.71627422243203