CRYSTAL
# Primitive lattice vectors in Angstrom
PRIMVEC
 1.88609972348736 0.00000000000000 1.08894018307390
 0.62869990782912 1.77823187262931 1.08894018307390
 0.00000000000000 0.00000000000000 2.17788036614781
# Cartesian coordinates in Angstrom.
PRIMCOORD
 2 1
O     0.00000000000000     0.00000000000000     0.00000000000000
O     1.25739981565824     0.88911593631465     2.17788036614781