CRYSTAL
# Primitive lattice vectors in Angstrom
PRIMVEC
 2.92379893997877 0.00000000000000 1.68805610505308
 0.97459964665959 2.75658407638004 1.68805610505308
 0.00000000000000 0.00000000000000 3.37611221010616
# Cartesian coordinates in Angstrom.
PRIMCOORD
 3 1
Os     0.00000000000000     0.00000000000000     0.00000000000000
O     0.97459964665959     0.68914601909501     1.68805610505308
O     2.92379893997877     2.06743805728503     5.06416831515925