CRYSTAL
# Primitive lattice vectors in Angstrom
PRIMVEC
 4.91193473130458 0.00000000000000 0.00000000000000
 -0.00000000000000 4.91193473130458 0.00000000000000
 0.00000000000000 0.00000000000000 4.91193473130458
# Cartesian coordinates in Angstrom.
PRIMCOORD
 14 1
Os     0.00000000000000     0.00000000000000     0.00000000000000
Os     2.45596736565229     2.45596736565229     0.00000000000000
Os     2.45596736565229     0.00000000000000     2.45596736565229
Os     0.00000000000000     2.45596736565229     2.45596736565229
O     2.45596736565229     0.00000000000000     0.00000000000000
O     0.00000000000000     2.45596736565229     0.00000000000000
O     0.00000000000000     0.00000000000000     2.45596736565229
O     2.45596736565229     2.45596736565229     2.45596736565229
O     3.68395104847844     3.68395104847844     1.22798368282615
O     3.68395104847844     1.22798368282615     3.68395104847844
O     1.22798368282615     3.68395104847844     3.68395104847844
O     3.68395104847844     1.22798368282615     1.22798368282615
O     1.22798368282615     3.68395104847844     1.22798368282615
O     1.22798368282615     1.22798368282615     3.68395104847844