CRYSTAL
# Primitive lattice vectors in Angstrom
PRIMVEC
 3.25010368425655 0.00000000000000 1.87644823699971
 1.08336789475218 3.06422713959625 1.87644823699971
 0.00000000000000 0.00000000000000 3.75289647399943
# Cartesian coordinates in Angstrom.
PRIMCOORD
 3 1
Os     1.08336789475218     0.76605678489906     1.87644823699971
Os     3.25010368425655     2.29817035469719     5.62934471099914
O     0.00000000000000     0.00000000000000     0.00000000000000