CRYSTAL
# Primitive lattice vectors in Angstrom
PRIMVEC
 2.68199471753822 0.00000000000000 1.54845037213584
 0.89399823917941 2.52860886917037 1.54845037213584
 0.00000000000000 0.00000000000000 3.09690074427169
# Cartesian coordinates in Angstrom.
PRIMCOORD
 2 1
Os     0.00000000000000     0.00000000000000     0.00000000000000
O     1.78799647835881     1.26430443458518     3.09690074427169