CRYSTAL
# Primitive lattice vectors in Angstrom
PRIMVEC
 4.69282906466003 0.00000000000000 0.00000000000000
 -0.00000000000000 4.69282906466003 0.00000000000000
 0.00000000000000 0.00000000000000 4.69282906466003
# Cartesian coordinates in Angstrom.
PRIMCOORD
 10 1
Os     1.17320726616501     1.17320726616501     1.17320726616501
Os     3.51962179849503     3.51962179849503     1.17320726616501
Os     3.51962179849503     1.17320726616501     3.51962179849503
Os     1.17320726616501     3.51962179849503     3.51962179849503
O     2.34641453233002     0.00000000000000     0.00000000000000
O     0.00000000000000     2.34641453233002     0.00000000000000
O     0.00000000000000     0.00000000000000     2.34641453233002
O     2.34641453233002     2.34641453233002     0.00000000000000
O     2.34641453233002     0.00000000000000     2.34641453233002
O     0.00000000000000     2.34641453233002     2.34641453233002