CRYSTAL
# Primitive lattice vectors in Angstrom
PRIMVEC
 4.93626677023269 0.00000000000000 0.00000000000000
 -0.00000000000000 4.93626677023269 0.00000000000000
 0.00000000000000 0.00000000000000 4.93626677023269
# Cartesian coordinates in Angstrom.
PRIMCOORD
 14 1
P     0.00000000000000     0.00000000000000     0.00000000000000
P     2.46813338511635     2.46813338511635     0.00000000000000
P     2.46813338511635     0.00000000000000     2.46813338511635
P     0.00000000000000     2.46813338511635     2.46813338511635
O     2.46813338511635     0.00000000000000     0.00000000000000
O     0.00000000000000     2.46813338511635     0.00000000000000
O     0.00000000000000     0.00000000000000     2.46813338511635
O     2.46813338511635     2.46813338511635     2.46813338511635
O     3.70220007767452     3.70220007767452     1.23406669255817
O     3.70220007767452     1.23406669255817     3.70220007767452
O     1.23406669255817     3.70220007767452     3.70220007767452
O     3.70220007767452     1.23406669255817     1.23406669255817
O     1.23406669255817     3.70220007767452     1.23406669255817
O     1.23406669255817     1.23406669255817     3.70220007767452