CRYSTAL
# Primitive lattice vectors in Angstrom
PRIMVEC
 4.72916923565881 0.00000000000000 0.00000000000000
 -0.00000000000000 4.72916923565881 0.00000000000000
 0.00000000000000 0.00000000000000 4.72916923565881
# Cartesian coordinates in Angstrom.
PRIMCOORD
 10 1
P     1.18229230891470     1.18229230891470     1.18229230891470
P     3.54687692674411     3.54687692674411     1.18229230891470
P     3.54687692674411     1.18229230891470     3.54687692674411
P     1.18229230891470     3.54687692674411     3.54687692674411
O     2.36458461782941     0.00000000000000     0.00000000000000
O     0.00000000000000     2.36458461782941     0.00000000000000
O     0.00000000000000     0.00000000000000     2.36458461782941
O     2.36458461782941     2.36458461782941     0.00000000000000
O     2.36458461782941     0.00000000000000     2.36458461782941
O     0.00000000000000     2.36458461782941     2.36458461782941