CRYSTAL
# Primitive lattice vectors in Angstrom
PRIMVEC
 3.25624139562238 0.00000000000000 1.87999184630898
 1.08541379854079 3.07001382936658 1.87999184630898
 0.00000000000000 0.00000000000000 3.75998369261797
# Cartesian coordinates in Angstrom.
PRIMCOORD
 3 1
P     1.08541379854079     0.76750345734164     1.87999184630898
P     3.25624139562238     2.30251037202493     5.63997553892695
O     0.00000000000000     0.00000000000000     0.00000000000000