CRYSTAL
# Primitive lattice vectors in Angstrom
PRIMVEC
 3.28344594201812 0.00000000000000 0.00000000000000
 -0.00000000000000 3.28344594201812 0.00000000000000
 0.00000000000000 0.00000000000000 3.28344594201812
# Cartesian coordinates in Angstrom.
PRIMCOORD
 4 1
P     0.00000000000000     0.00000000000000     0.00000000000000
O     1.64172297100905     0.00000000000000     0.00000000000000
O     0.00000000000000     1.64172297100905     0.00000000000000
O     0.00000000000000     0.00000000000000     1.64172297100905