CRYSTAL
# Primitive lattice vectors in Angstrom
PRIMVEC
 2.76597523857066 0.00000000000000 1.59693654856061
 0.92199174619022 2.60778646371652 1.59693654856061
 0.00000000000000 0.00000000000000 3.19387309712121
# Cartesian coordinates in Angstrom.
PRIMCOORD
 2 1
P     0.00000000000000     0.00000000000000     0.00000000000000
O     1.84398349238044     1.30389323185826     3.19387309712121