CRYSTAL
# Primitive lattice vectors in Angstrom
PRIMVEC
 2.86086508611101 0.00000000000000 1.65172122758139
 0.95362169537033 2.69724946993191 1.65172122758139
 0.00000000000000 0.00000000000000 3.30344245516278
# Cartesian coordinates in Angstrom.
PRIMCOORD
 3 1
P     0.00000000000000     0.00000000000000     0.00000000000000
O     0.95362169537033     0.67431236748298     1.65172122758139
O     2.86086508611101     2.02293710244893     4.95516368274418