CRYSTAL
# Primitive lattice vectors in Angstrom
PRIMVEC
 3.63489685160917 0.00000000000000 2.09860867575308
 1.21163228386972 3.42701361691530 2.09860867575308
 0.00000000000000 0.00000000000000 4.19721735150616
# Cartesian coordinates in Angstrom.
PRIMCOORD
 3 1
Pa     1.21163228386972     0.85675340422882     2.09860867575308
Pa     3.63489685160917     2.57026021268648     6.29582602725923
O     0.00000000000000     0.00000000000000     0.00000000000000