CRYSTAL
# Primitive lattice vectors in Angstrom
PRIMVEC
 5.30361720576781 0.00000000000000 0.00000000000000
 -0.00000000000000 5.30361720576781 0.00000000000000
 0.00000000000000 0.00000000000000 5.30361720576781
# Cartesian coordinates in Angstrom.
PRIMCOORD
 10 1
Pa     1.32590430144195     1.32590430144195     1.32590430144195
Pa     3.97771290432586     3.97771290432586     1.32590430144195
Pa     3.97771290432586     1.32590430144195     3.97771290432586
Pa     1.32590430144195     3.97771290432586     3.97771290432586
O     2.65180860288391     0.00000000000000     0.00000000000000
O     0.00000000000000     2.65180860288391     0.00000000000000
O     0.00000000000000     0.00000000000000     2.65180860288391
O     2.65180860288391     2.65180860288391     0.00000000000000
O     2.65180860288391     0.00000000000000     2.65180860288391
O     0.00000000000000     2.65180860288391     2.65180860288391