CRYSTAL
# Primitive lattice vectors in Angstrom
PRIMVEC
 5.32619487735278 0.00000000000000 0.00000000000000
 -0.00000000000000 5.32619487735278 0.00000000000000
 0.00000000000000 0.00000000000000 5.32619487735278
# Cartesian coordinates in Angstrom.
PRIMCOORD
 14 1
Pa     0.00000000000000     0.00000000000000     0.00000000000000
Pa     2.66309743867639     2.66309743867639     0.00000000000000
Pa     2.66309743867639     0.00000000000000     2.66309743867639
Pa     0.00000000000000     2.66309743867639     2.66309743867639
O     2.66309743867639     0.00000000000000     0.00000000000000
O     0.00000000000000     2.66309743867639     0.00000000000000
O     0.00000000000000     0.00000000000000     2.66309743867639
O     2.66309743867639     2.66309743867639     2.66309743867639
O     3.99464615801459     3.99464615801459     1.33154871933820
O     3.99464615801459     1.33154871933820     3.99464615801459
O     1.33154871933820     3.99464615801459     3.99464615801459
O     3.99464615801459     1.33154871933820     1.33154871933820
O     1.33154871933820     3.99464615801459     1.33154871933820
O     1.33154871933820     1.33154871933820     3.99464615801459