CRYSTAL
# Primitive lattice vectors in Angstrom
PRIMVEC
 3.28194931496834 0.00000000000000 1.89483432046368
 1.09398310498945 3.09425148816622 1.89483432046368
 0.00000000000000 0.00000000000000 3.78966864092736
# Cartesian coordinates in Angstrom.
PRIMCOORD
 3 1
Pa     0.00000000000000     0.00000000000000     0.00000000000000
O     1.09398310498945     0.77356287204155     1.89483432046368
O     3.28194931496834     2.32068861612466     5.68450296139105