CRYSTAL
# Primitive lattice vectors in Angstrom
PRIMVEC
 2.96772367693715 0.00000000000000 1.71341606376009
 0.98924122564572 2.79799671553351 1.71341606376009
 0.00000000000000 0.00000000000000 3.42683212752017
# Cartesian coordinates in Angstrom.
PRIMCOORD
 2 1
Pa     0.00000000000000     0.00000000000000     0.00000000000000
O     1.97848245129143     1.39899835776675     3.42683212752017