CRYSTAL
# Primitive lattice vectors in Angstrom
PRIMVEC
 4.18573612295695 0.00000000000000 0.00000000000000
 -0.00000000000000 4.18573612295695 0.00000000000000
 0.00000000000000 0.00000000000000 4.18573612295695
# Cartesian coordinates in Angstrom.
PRIMCOORD
 4 1
Pa     0.00000000000000     0.00000000000000     0.00000000000000
O     2.09286806147847     0.00000000000000     0.00000000000000
O     0.00000000000000     2.09286806147847     0.00000000000000
O     0.00000000000000     0.00000000000000     2.09286806147847