CRYSTAL
# Primitive lattice vectors in Angstrom
PRIMVEC
 3.23199701114384 0.00000000000000 1.86599434440396
 1.07733233704794 3.04715600447262 1.86599434440396
 0.00000000000000 0.00000000000000 3.73198868880792
# Cartesian coordinates in Angstrom.
PRIMCOORD
 3 1
Pb     0.00000000000000     0.00000000000000     0.00000000000000
O     1.07733233704794     0.76178900111815     1.86599434440396
O     3.23199701114384     2.28536700335446     5.59798303321189