CRYSTAL
# Primitive lattice vectors in Angstrom
PRIMVEC
 3.88780354905137 0.00000000000000 2.24462442560119
 1.29593451635045 3.66545633794047 2.24462442560119
 0.00000000000000 0.00000000000000 4.48924885120239
# Cartesian coordinates in Angstrom.
PRIMCOORD
 3 1
Pb     1.29593451635045     0.91636408448511     2.24462442560119
Pb     3.88780354905137     2.74909225345535     6.73387327680358
O     0.00000000000000     0.00000000000000     0.00000000000000