CRYSTAL
# Primitive lattice vectors in Angstrom
PRIMVEC
 4.17205195514446 0.00000000000000 0.00000000000000
 -0.00000000000000 4.17205195514446 0.00000000000000
 0.00000000000000 0.00000000000000 4.17205195514446
# Cartesian coordinates in Angstrom.
PRIMCOORD
 4 1
Pb     0.00000000000000     0.00000000000000     0.00000000000000
O     2.08602597757223     0.00000000000000     0.00000000000000
O     0.00000000000000     2.08602597757223     0.00000000000000
O     0.00000000000000     0.00000000000000     2.08602597757223