CRYSTAL
# Primitive lattice vectors in Angstrom
PRIMVEC
 3.13849455121890 0.00000000000000 1.81201067399640
 1.04616485040630 2.95900103984522 1.81201067399640
 0.00000000000000 0.00000000000000 3.62402134799281
# Cartesian coordinates in Angstrom.
PRIMCOORD
 2 1
Pb     0.00000000000000     0.00000000000000     0.00000000000000
O     2.09232970081260     1.47950051992260     3.62402134799281