CRYSTAL
# Primitive lattice vectors in Angstrom
PRIMVEC
 5.42573238176414 0.00000000000000 0.00000000000000
 -0.00000000000000 5.42573238176414 0.00000000000000
 0.00000000000000 0.00000000000000 5.42573238176414
# Cartesian coordinates in Angstrom.
PRIMCOORD
 14 1
Pb     0.00000000000000     0.00000000000000     0.00000000000000
Pb     2.71286619088207     2.71286619088207     0.00000000000000
Pb     2.71286619088207     0.00000000000000     2.71286619088207
Pb     0.00000000000000     2.71286619088207     2.71286619088207
O     2.71286619088207     0.00000000000000     0.00000000000000
O     0.00000000000000     2.71286619088207     0.00000000000000
O     0.00000000000000     0.00000000000000     2.71286619088207
O     2.71286619088207     2.71286619088207     2.71286619088207
O     4.06929928632311     4.06929928632311     1.35643309544104
O     4.06929928632311     1.35643309544104     4.06929928632311
O     1.35643309544104     4.06929928632311     4.06929928632311
O     4.06929928632311     1.35643309544104     1.35643309544104
O     1.35643309544104     4.06929928632311     1.35643309544104
O     1.35643309544104     1.35643309544104     4.06929928632311