CRYSTAL
# Primitive lattice vectors in Angstrom
PRIMVEC
 5.41238505155508 0.00000000000000 0.00000000000000
 -0.00000000000000 5.41238505155508 0.00000000000000
 0.00000000000000 0.00000000000000 5.41238505155508
# Cartesian coordinates in Angstrom.
PRIMCOORD
 10 1
Pb     1.35309626288877     1.35309626288877     1.35309626288877
Pb     4.05928878866631     4.05928878866631     1.35309626288877
Pb     4.05928878866631     1.35309626288877     4.05928878866631
Pb     1.35309626288877     4.05928878866631     4.05928878866631
O     2.70619252577755     0.00000000000000     0.00000000000000
O     0.00000000000000     2.70619252577755     0.00000000000000
O     0.00000000000000     0.00000000000000     2.70619252577755
O     2.70619252577755     2.70619252577755     0.00000000000000
O     2.70619252577755     0.00000000000000     2.70619252577755
O     0.00000000000000     2.70619252577755     2.70619252577755