CRYSTAL
# Primitive lattice vectors in Angstrom
PRIMVEC
 3.78240618388668 0.00000000000000 0.00000000000000
 -0.00000000000000 3.78240618388668 0.00000000000000
 0.00000000000000 0.00000000000000 3.78240618388668
# Cartesian coordinates in Angstrom.
PRIMCOORD
 4 1
Pd     0.00000000000000     0.00000000000000     0.00000000000000
O     1.89120309194334     0.00000000000000     0.00000000000000
O     0.00000000000000     1.89120309194334     0.00000000000000
O     0.00000000000000     0.00000000000000     1.89120309194334