CRYSTAL
# Primitive lattice vectors in Angstrom
PRIMVEC
 2.99443011427759 0.00000000000000 1.72883503254769
 0.99814337142586 2.82317578612653 1.72883503254769
 0.00000000000000 0.00000000000000 3.45767006509538
# Cartesian coordinates in Angstrom.
PRIMCOORD
 3 1
Pd     0.00000000000000     0.00000000000000     0.00000000000000
O     0.99814337142586     0.70579394653163     1.72883503254769
O     2.99443011427759     2.11738183959490     5.18650509764308