CRYSTAL
# Primitive lattice vectors in Angstrom
PRIMVEC
 4.78705561740229 0.00000000000000 0.00000000000000
 -0.00000000000000 4.78705561740229 0.00000000000000
 0.00000000000000 0.00000000000000 4.78705561740229
# Cartesian coordinates in Angstrom.
PRIMCOORD
 10 1
Pd     1.19676390435057     1.19676390435057     1.19676390435057
Pd     3.59029171305172     3.59029171305172     1.19676390435057
Pd     3.59029171305172     1.19676390435057     3.59029171305172
Pd     1.19676390435057     3.59029171305172     3.59029171305172
O     2.39352780870115     0.00000000000000     0.00000000000000
O     0.00000000000000     2.39352780870115     0.00000000000000
O     0.00000000000000     0.00000000000000     2.39352780870115
O     2.39352780870115     2.39352780870115     0.00000000000000
O     2.39352780870115     0.00000000000000     2.39352780870115
O     0.00000000000000     2.39352780870115     2.39352780870115