CRYSTAL
# Primitive lattice vectors in Angstrom
PRIMVEC
 5.02137380474584 0.00000000000000 0.00000000000000
 -0.00000000000000 5.02137380474584 0.00000000000000
 0.00000000000000 0.00000000000000 5.02137380474584
# Cartesian coordinates in Angstrom.
PRIMCOORD
 14 1
Pd     0.00000000000000     0.00000000000000     0.00000000000000
Pd     2.51068690237292     2.51068690237292     0.00000000000000
Pd     2.51068690237292     0.00000000000000     2.51068690237292
Pd     0.00000000000000     2.51068690237292     2.51068690237292
O     2.51068690237292     0.00000000000000     0.00000000000000
O     0.00000000000000     2.51068690237292     0.00000000000000
O     0.00000000000000     0.00000000000000     2.51068690237292
O     2.51068690237292     2.51068690237292     2.51068690237292
O     3.76603035355938     3.76603035355938     1.25534345118646
O     3.76603035355938     1.25534345118646     3.76603035355938
O     1.25534345118646     3.76603035355938     3.76603035355938
O     3.76603035355938     1.25534345118646     1.25534345118646
O     1.25534345118646     3.76603035355938     1.25534345118646
O     1.25534345118646     1.25534345118646     3.76603035355938