CRYSTAL
# Primitive lattice vectors in Angstrom
PRIMVEC
 2.70156784576396 0.00000000000000 1.55975092298586
 0.90052261525465 2.54706259143364 1.55975092298586
 0.00000000000000 0.00000000000000 3.11950184597171
# Cartesian coordinates in Angstrom.
PRIMCOORD
 2 1
Pd     0.00000000000000     0.00000000000000     0.00000000000000
O     1.80104523050931     1.27353129571682     3.11950184597171