CRYSTAL
# Primitive lattice vectors in Angstrom
PRIMVEC
 3.28305084141970 0.00000000000000 1.89547028705689
 1.09435028047323 3.09529001726410 1.89547028705689
 0.00000000000000 0.00000000000000 3.79094057411379
# Cartesian coordinates in Angstrom.
PRIMCOORD
 3 1
Pd     1.09435028047323     0.77382250431602     1.89547028705689
Pd     3.28305084141970     2.32146751294807     5.68641086117068
O     0.00000000000000     0.00000000000000     0.00000000000000