CRYSTAL
# Primitive lattice vectors in Angstrom
PRIMVEC
 5.26779458300284 0.00000000000000 0.00000000000000
 -0.00000000000000 5.26779458300284 0.00000000000000
 0.00000000000000 0.00000000000000 5.26779458300284
# Cartesian coordinates in Angstrom.
PRIMCOORD
 14 1
Pm     0.00000000000000     0.00000000000000     0.00000000000000
Pm     2.63389729150142     2.63389729150142     0.00000000000000
Pm     2.63389729150142     0.00000000000000     2.63389729150142
Pm     0.00000000000000     2.63389729150142     2.63389729150142
O     2.63389729150142     0.00000000000000     0.00000000000000
O     0.00000000000000     2.63389729150142     0.00000000000000
O     0.00000000000000     0.00000000000000     2.63389729150142
O     2.63389729150142     2.63389729150142     2.63389729150142
O     3.95084593725213     3.95084593725213     1.31694864575071
O     3.95084593725213     1.31694864575071     3.95084593725213
O     1.31694864575071     3.95084593725213     3.95084593725213
O     3.95084593725213     1.31694864575071     1.31694864575071
O     1.31694864575071     3.95084593725213     1.31694864575071
O     1.31694864575071     1.31694864575071     3.95084593725213