CRYSTAL
# Primitive lattice vectors in Angstrom
PRIMVEC
 3.45960010635007 0.00000000000000 1.99740105268967
 1.15320003545002 3.26174226052511 1.99740105268967
 0.00000000000000 0.00000000000000 3.99480210537935
# Cartesian coordinates in Angstrom.
PRIMCOORD
 3 1
Pm     1.15320003545002     0.81543556513128     1.99740105268967
Pm     3.45960010635007     2.44630669539384     5.99220315806902
O     0.00000000000000     0.00000000000000     0.00000000000000