CRYSTAL
# Primitive lattice vectors in Angstrom
PRIMVEC
 2.91423643271593 0.00000000000000 1.68253518891075
 0.97141214423864 2.74756845807244 1.68253518891075
 0.00000000000000 0.00000000000000 3.36507037782151
# Cartesian coordinates in Angstrom.
PRIMCOORD
 2 1
Pm     0.00000000000000     0.00000000000000     0.00000000000000
O     1.94282428847729     1.37378422903621     3.36507037782151