CRYSTAL
# Primitive lattice vectors in Angstrom
PRIMVEC
 4.06213755811941 0.00000000000000 0.00000000000000
 -0.00000000000000 4.06213755811941 0.00000000000000
 0.00000000000000 0.00000000000000 4.06213755811941
# Cartesian coordinates in Angstrom.
PRIMCOORD
 4 1
Pm     0.00000000000000     0.00000000000000     0.00000000000000
O     2.03106877905970     0.00000000000000     0.00000000000000
O     0.00000000000000     2.03106877905970     0.00000000000000
O     0.00000000000000     0.00000000000000     2.03106877905970