CRYSTAL
# Primitive lattice vectors in Angstrom
PRIMVEC
 3.20829068309578 0.00000000000000 1.85230748952391
 1.06943022769859 3.02480546404620 1.85230748952391
 0.00000000000000 0.00000000000000 3.70461497904783
# Cartesian coordinates in Angstrom.
PRIMCOORD
 3 1
Pm     0.00000000000000     0.00000000000000     0.00000000000000
O     1.06943022769859     0.75620136601155     1.85230748952391
O     3.20829068309578     2.26860409803465     5.55692246857175