CRYSTAL
# Primitive lattice vectors in Angstrom
PRIMVEC
 5.24294337631803 0.00000000000000 0.00000000000000
 -0.00000000000000 5.24294337631803 0.00000000000000
 0.00000000000000 0.00000000000000 5.24294337631803
# Cartesian coordinates in Angstrom.
PRIMCOORD
 10 1
Pm     1.31073584407951     1.31073584407951     1.31073584407951
Pm     3.93220753223853     3.93220753223853     1.31073584407951
Pm     3.93220753223853     1.31073584407951     3.93220753223853
Pm     1.31073584407951     3.93220753223853     3.93220753223853
O     2.62147168815902     0.00000000000000     0.00000000000000
O     0.00000000000000     2.62147168815902     0.00000000000000
O     0.00000000000000     0.00000000000000     2.62147168815902
O     2.62147168815902     2.62147168815902     0.00000000000000
O     2.62147168815902     0.00000000000000     2.62147168815902
O     0.00000000000000     2.62147168815902     2.62147168815902