CRYSTAL
# Primitive lattice vectors in Angstrom
PRIMVEC
 5.41947433399987 0.00000000000000 0.00000000000000
 -0.00000000000000 5.41947433399987 0.00000000000000
 0.00000000000000 0.00000000000000 5.41947433399987
# Cartesian coordinates in Angstrom.
PRIMCOORD
 10 1
Po     1.35486858349996     1.35486858349996     1.35486858349996
Po     4.06460575049990     4.06460575049990     1.35486858349996
Po     4.06460575049990     1.35486858349996     4.06460575049990
Po     1.35486858349996     4.06460575049990     4.06460575049990
O     2.70973716699994     0.00000000000000     0.00000000000000
O     0.00000000000000     2.70973716699994     0.00000000000000
O     0.00000000000000     0.00000000000000     2.70973716699994
O     2.70973716699994     2.70973716699994     0.00000000000000
O     2.70973716699994     0.00000000000000     2.70973716699994
O     0.00000000000000     2.70973716699994     2.70973716699994