CRYSTAL
# Primitive lattice vectors in Angstrom
PRIMVEC
 5.42135100264510 0.00000000000000 0.00000000000000
 -0.00000000000000 5.42135100264510 0.00000000000000
 0.00000000000000 0.00000000000000 5.42135100264510
# Cartesian coordinates in Angstrom.
PRIMCOORD
 14 1
Po     0.00000000000000     0.00000000000000     0.00000000000000
Po     2.71067550132255     2.71067550132255     0.00000000000000
Po     2.71067550132255     0.00000000000000     2.71067550132255
Po     0.00000000000000     2.71067550132255     2.71067550132255
O     2.71067550132255     0.00000000000000     0.00000000000000
O     0.00000000000000     2.71067550132255     0.00000000000000
O     0.00000000000000     0.00000000000000     2.71067550132255
O     2.71067550132255     2.71067550132255     2.71067550132255
O     4.06601325198382     4.06601325198382     1.35533775066127
O     4.06601325198382     1.35533775066127     4.06601325198382
O     1.35533775066127     4.06601325198382     4.06601325198382
O     4.06601325198382     1.35533775066127     1.35533775066127
O     1.35533775066127     4.06601325198382     1.35533775066127
O     1.35533775066127     1.35533775066127     4.06601325198382