CRYSTAL
# Primitive lattice vectors in Angstrom
PRIMVEC
 3.17911535981270 0.00000000000000 1.83546310877273
 1.05970511993757 2.99729870546382 1.83546310877273
 0.00000000000000 0.00000000000000 3.67092621754546
# Cartesian coordinates in Angstrom.
PRIMCOORD
 2 1
Po     0.00000000000000     0.00000000000000     0.00000000000000
O     2.11941023987513     1.49864935273191     3.67092621754546