CRYSTAL
# Primitive lattice vectors in Angstrom
PRIMVEC
 4.04680877273089 0.00000000000000 0.00000000000000
 -0.00000000000000 4.04680877273089 0.00000000000000
 0.00000000000000 0.00000000000000 4.04680877273089
# Cartesian coordinates in Angstrom.
PRIMCOORD
 4 1
Po     0.00000000000000     0.00000000000000     0.00000000000000
O     2.02340438636544     0.00000000000000     0.00000000000000
O     0.00000000000000     2.02340438636544     0.00000000000000
O     0.00000000000000     0.00000000000000     2.02340438636544