CRYSTAL
# Primitive lattice vectors in Angstrom
PRIMVEC
 3.91428304144807 0.00000000000000 2.25991236766443
 1.30476101381602 3.69042144278858 2.25991236766443
 0.00000000000000 0.00000000000000 4.51982473532886
# Cartesian coordinates in Angstrom.
PRIMCOORD
 3 1
Po     1.30476101381602     0.92260536069714     2.25991236766443
Po     3.91428304144807     2.76781608209144     6.77973710299329
O     0.00000000000000     0.00000000000000     0.00000000000000