CRYSTAL
# Primitive lattice vectors in Angstrom
PRIMVEC
 3.30968044542466 0.00000000000000 1.91084489609757
 1.10322681514155 3.12039664869372 1.91084489609757
 0.00000000000000 0.00000000000000 3.82168979219513
# Cartesian coordinates in Angstrom.
PRIMCOORD
 3 1
Po     0.00000000000000     0.00000000000000     0.00000000000000
O     1.10322681514155     0.78009916217343     1.91084489609757
O     3.30968044542466     2.34029748652029     5.73253468829271