CRYSTAL
# Primitive lattice vectors in Angstrom
PRIMVEC
 4.13401523685982 0.00000000000000 0.00000000000000
 -0.00000000000000 4.13401523685982 0.00000000000000
 0.00000000000000 0.00000000000000 4.13401523685982
# Cartesian coordinates in Angstrom.
PRIMCOORD
 4 1
Pr     0.00000000000000     0.00000000000000     0.00000000000000
O     2.06700761842990     0.00000000000000     0.00000000000000
O     0.00000000000000     2.06700761842990     0.00000000000000
O     0.00000000000000     0.00000000000000     2.06700761842990