CRYSTAL
# Primitive lattice vectors in Angstrom
PRIMVEC
 3.52974000547168 0.00000000000000 2.03789634232847
 1.17658000182389 3.32787079159262 2.03789634232847
 0.00000000000000 0.00000000000000 4.07579268465694
# Cartesian coordinates in Angstrom.
PRIMCOORD
 3 1
Pr     1.17658000182389     0.83196769789815     2.03789634232847
Pr     3.52974000547168     2.49590309369447     6.11368902698541
O     0.00000000000000     0.00000000000000     0.00000000000000