CRYSTAL
# Primitive lattice vectors in Angstrom
PRIMVEC
 2.95587182926030 0.00000000000000 1.70657339631346
 0.98529060975343 2.78682268638432 1.70657339631346
 0.00000000000000 0.00000000000000 3.41314679262692
# Cartesian coordinates in Angstrom.
PRIMCOORD
 2 1
Pr     0.00000000000000     0.00000000000000     0.00000000000000
O     1.97058121950686     1.39341134319215     3.41314679262692