CRYSTAL
# Primitive lattice vectors in Angstrom
PRIMVEC
 5.31164761495184 0.00000000000000 0.00000000000000
 -0.00000000000000 5.31164761495184 0.00000000000000
 0.00000000000000 0.00000000000000 5.31164761495184
# Cartesian coordinates in Angstrom.
PRIMCOORD
 14 1
Pr     0.00000000000000     0.00000000000000     0.00000000000000
Pr     2.65582380747592     2.65582380747592     0.00000000000000
Pr     2.65582380747592     0.00000000000000     2.65582380747592
Pr     0.00000000000000     2.65582380747592     2.65582380747592
O     2.65582380747592     0.00000000000000     0.00000000000000
O     0.00000000000000     2.65582380747592     0.00000000000000
O     0.00000000000000     0.00000000000000     2.65582380747592
O     2.65582380747592     2.65582380747592     2.65582380747592
O     3.98373571121388     3.98373571121388     1.32791190373796
O     3.98373571121388     1.32791190373796     3.98373571121388
O     1.32791190373796     3.98373571121388     3.98373571121388
O     3.98373571121388     1.32791190373796     1.32791190373796
O     1.32791190373796     3.98373571121388     1.32791190373796
O     1.32791190373796     1.32791190373796     3.98373571121388