CRYSTAL
# Primitive lattice vectors in Angstrom
PRIMVEC
 3.25062337462299 0.00000000000000 1.87674828037267
 1.08354112487433 3.06471710837256 1.87674828037267
 0.00000000000000 0.00000000000000 3.75349656074534
# Cartesian coordinates in Angstrom.
PRIMCOORD
 3 1
Pr     0.00000000000000     0.00000000000000     0.00000000000000
O     1.08354112487433     0.76617927709314     1.87674828037267
O     3.25062337462299     2.29853783127942     5.63024484111803