CRYSTAL
# Primitive lattice vectors in Angstrom
PRIMVEC
 5.30856718831039 0.00000000000000 0.00000000000000
 -0.00000000000000 5.30856718831039 0.00000000000000
 0.00000000000000 0.00000000000000 5.30856718831039
# Cartesian coordinates in Angstrom.
PRIMCOORD
 10 1
Pr     1.32714179707760     1.32714179707760     1.32714179707760
Pr     3.98142539123280     3.98142539123280     1.32714179707760
Pr     3.98142539123280     1.32714179707760     3.98142539123280
Pr     1.32714179707760     3.98142539123280     3.98142539123280
O     2.65428359415520     0.00000000000000     0.00000000000000
O     0.00000000000000     2.65428359415520     0.00000000000000
O     0.00000000000000     0.00000000000000     2.65428359415520
O     2.65428359415520     2.65428359415520     0.00000000000000
O     2.65428359415520     0.00000000000000     2.65428359415520
O     0.00000000000000     2.65428359415520     2.65428359415520