CRYSTAL
# Primitive lattice vectors in Angstrom
PRIMVEC
 4.84377264990017 0.00000000000000 0.00000000000000
 -0.00000000000000 4.84377264990017 0.00000000000000
 0.00000000000000 0.00000000000000 4.84377264990017
# Cartesian coordinates in Angstrom.
PRIMCOORD
 10 1
Pt     1.21094316247504     1.21094316247504     1.21094316247504
Pt     3.63282948742513     3.63282948742513     1.21094316247504
Pt     3.63282948742513     1.21094316247504     3.63282948742513
Pt     1.21094316247504     3.63282948742513     3.63282948742513
O     2.42188632495009     0.00000000000000     0.00000000000000
O     0.00000000000000     2.42188632495009     0.00000000000000
O     0.00000000000000     0.00000000000000     2.42188632495009
O     2.42188632495009     2.42188632495009     0.00000000000000
O     2.42188632495009     0.00000000000000     2.42188632495009
O     0.00000000000000     2.42188632495009     2.42188632495009