CRYSTAL
# Primitive lattice vectors in Angstrom
PRIMVEC
 5.04430671423088 0.00000000000000 0.00000000000000
 -0.00000000000000 5.04430671423088 0.00000000000000
 0.00000000000000 0.00000000000000 5.04430671423088
# Cartesian coordinates in Angstrom.
PRIMCOORD
 14 1
Pt     0.00000000000000     0.00000000000000     0.00000000000000
Pt     2.52215335711544     2.52215335711544     0.00000000000000
Pt     2.52215335711544     0.00000000000000     2.52215335711544
Pt     0.00000000000000     2.52215335711544     2.52215335711544
O     2.52215335711544     0.00000000000000     0.00000000000000
O     0.00000000000000     2.52215335711544     0.00000000000000
O     0.00000000000000     0.00000000000000     2.52215335711544
O     2.52215335711544     2.52215335711544     2.52215335711544
O     3.78323003567316     3.78323003567316     1.26107667855772
O     3.78323003567316     1.26107667855772     3.78323003567316
O     1.26107667855772     3.78323003567316     3.78323003567316
O     3.78323003567316     1.26107667855772     1.26107667855772
O     1.26107667855772     3.78323003567316     1.26107667855772
O     1.26107667855772     1.26107667855772     3.78323003567316