CRYSTAL
# Primitive lattice vectors in Angstrom
PRIMVEC
 3.32948737542945 0.00000000000000 1.92228043246766
 1.10982912514315 3.13907080138822 1.92228043246766
 0.00000000000000 0.00000000000000 3.84456086493531
# Cartesian coordinates in Angstrom.
PRIMCOORD
 3 1
Pt     1.10982912514315     0.78476770034705     1.92228043246766
Pt     3.32948737542945     2.35430310104117     5.76684129740296
O     0.00000000000000     0.00000000000000     0.00000000000000