CRYSTAL
# Primitive lattice vectors in Angstrom
PRIMVEC
 3.77297380726487 0.00000000000000 0.00000000000000
 -0.00000000000000 3.77297380726487 0.00000000000000
 0.00000000000000 0.00000000000000 3.77297380726487
# Cartesian coordinates in Angstrom.
PRIMCOORD
 4 1
Pt     0.00000000000000     0.00000000000000     0.00000000000000
O     1.88648690363243     0.00000000000000     0.00000000000000
O     0.00000000000000     1.88648690363243     0.00000000000000
O     0.00000000000000     0.00000000000000     1.88648690363243