CRYSTAL
# Primitive lattice vectors in Angstrom
PRIMVEC
 2.75984451636853 0.00000000000000 1.59339697444688
 0.91994817212285 2.60200636339293 1.59339697444688
 0.00000000000000 0.00000000000000 3.18679394889377
# Cartesian coordinates in Angstrom.
PRIMCOORD
 2 1
Pt     0.00000000000000     0.00000000000000     0.00000000000000
O     1.83989634424569     1.30100318169646     3.18679394889377