CRYSTAL
# Primitive lattice vectors in Angstrom
PRIMVEC
 3.03105014730859 0.00000000000000 1.74997761847587
 1.01035004910286 2.85770148437119 1.74997761847587
 0.00000000000000 0.00000000000000 3.49995523695174
# Cartesian coordinates in Angstrom.
PRIMCOORD
 3 1
Pt     0.00000000000000     0.00000000000000     0.00000000000000
O     1.01035004910286     0.71442537109280     1.74997761847587
O     3.03105014730859     2.14327611327839     5.24993285542762