CRYSTAL
# Primitive lattice vectors in Angstrom
PRIMVEC
 2.84776650619712 0.00000000000000 1.64415875894210
 0.94925550206571 2.68490001035721 1.64415875894210
 0.00000000000000 0.00000000000000 3.28831751788421
# Cartesian coordinates in Angstrom.
PRIMCOORD
 2 1
Pu     0.00000000000000     0.00000000000000     0.00000000000000
O     1.89851100413141     1.34245000517860     3.28831751788421