CRYSTAL
# Primitive lattice vectors in Angstrom
PRIMVEC
 5.13523639393197 0.00000000000000 0.00000000000000
 -0.00000000000000 5.13523639393197 0.00000000000000
 0.00000000000000 0.00000000000000 5.13523639393197
# Cartesian coordinates in Angstrom.
PRIMCOORD
 10 1
Pu     1.28380909848299     1.28380909848299     1.28380909848299
Pu     3.85142729544898     3.85142729544898     1.28380909848299
Pu     3.85142729544898     1.28380909848299     3.85142729544898
Pu     1.28380909848299     3.85142729544898     3.85142729544898
O     2.56761819696599     0.00000000000000     0.00000000000000
O     0.00000000000000     2.56761819696599     0.00000000000000
O     0.00000000000000     0.00000000000000     2.56761819696599
O     2.56761819696599     2.56761819696599     0.00000000000000
O     2.56761819696599     0.00000000000000     2.56761819696599
O     0.00000000000000     2.56761819696599     2.56761819696599