CRYSTAL
# Primitive lattice vectors in Angstrom
PRIMVEC
 3.17922296403513 0.00000000000000 1.83552523409952
 1.05974098801171 2.99740015569765 1.83552523409952
 0.00000000000000 0.00000000000000 3.67105046819904
# Cartesian coordinates in Angstrom.
PRIMCOORD
 3 1
Pu     0.00000000000000     0.00000000000000     0.00000000000000
O     1.05974098801171     0.74935003892441     1.83552523409952
O     3.17922296403513     2.24805011677324     5.50657570229857