CRYSTAL
# Primitive lattice vectors in Angstrom
PRIMVEC
 3.39040048439612 0.00000000000000 1.95744863232674
 1.13013349479870 3.19650023127287 1.95744863232674
 0.00000000000000 0.00000000000000 3.91489726465348
# Cartesian coordinates in Angstrom.
PRIMCOORD
 3 1
Pu     1.13013349479870     0.79912505781821     1.95744863232674
Pu     3.39040048439612     2.39737517345465     5.87234589698021
O     0.00000000000000     0.00000000000000     0.00000000000000