CRYSTAL
# Primitive lattice vectors in Angstrom
PRIMVEC
 5.17084652958899 0.00000000000000 0.00000000000000
 -0.00000000000000 5.17084652958899 0.00000000000000
 0.00000000000000 0.00000000000000 5.17084652958899
# Cartesian coordinates in Angstrom.
PRIMCOORD
 14 1
Pu     0.00000000000000     0.00000000000000     0.00000000000000
Pu     2.58542326479449     2.58542326479449     0.00000000000000
Pu     2.58542326479449     0.00000000000000     2.58542326479449
Pu     0.00000000000000     2.58542326479449     2.58542326479449
O     2.58542326479449     0.00000000000000     0.00000000000000
O     0.00000000000000     2.58542326479449     0.00000000000000
O     0.00000000000000     0.00000000000000     2.58542326479449
O     2.58542326479449     2.58542326479449     2.58542326479449
O     3.87813489719174     3.87813489719174     1.29271163239725
O     3.87813489719174     1.29271163239725     3.87813489719174
O     1.29271163239725     3.87813489719174     3.87813489719174
O     3.87813489719174     1.29271163239725     1.29271163239725
O     1.29271163239725     3.87813489719174     1.29271163239725
O     1.29271163239725     1.29271163239725     3.87813489719174