CRYSTAL
# Primitive lattice vectors in Angstrom
PRIMVEC
 4.02800736865059 0.00000000000000 0.00000000000000
 -0.00000000000000 4.02800736865059 0.00000000000000
 0.00000000000000 0.00000000000000 4.02800736865059
# Cartesian coordinates in Angstrom.
PRIMCOORD
 4 1
Pu     0.00000000000000     0.00000000000000     0.00000000000000
O     2.01400368432529     0.00000000000000     0.00000000000000
O     0.00000000000000     2.01400368432529     0.00000000000000
O     0.00000000000000     0.00000000000000     2.01400368432529