CRYSTAL
# Primitive lattice vectors in Angstrom
PRIMVEC
 4.23401696489513 0.00000000000000 2.44451083443565
 1.41133898829837 3.99186947671498 2.44451083443565
 0.00000000000000 0.00000000000000 4.88902166887130
# Cartesian coordinates in Angstrom.
PRIMCOORD
 3 1
Ra     1.41133898829837     0.99796736917874     2.44451083443565
Ra     4.23401696489513     2.99390210753624     7.33353250330695
O     0.00000000000000     0.00000000000000     0.00000000000000