CRYSTAL
# Primitive lattice vectors in Angstrom
PRIMVEC
 3.71197318691289 0.00000000000000 2.14310871868883
 1.23732439563763 3.49968188273167 2.14310871868883
 0.00000000000000 0.00000000000000 4.28621743737766
# Cartesian coordinates in Angstrom.
PRIMCOORD
 3 1
Ra     0.00000000000000     0.00000000000000     0.00000000000000
O     1.23732439563763     0.87492047068292     2.14310871868883
O     3.71197318691289     2.62476141204875     6.42932615606650