CRYSTAL
# Primitive lattice vectors in Angstrom
PRIMVEC
 6.10433426473904 0.00000000000000 0.00000000000000
 -0.00000000000000 6.10433426473904 0.00000000000000
 0.00000000000000 0.00000000000000 6.10433426473904
# Cartesian coordinates in Angstrom.
PRIMCOORD
 10 1
Ra     1.52608356618476     1.52608356618476     1.52608356618476
Ra     4.57825069855428     4.57825069855428     1.52608356618476
Ra     4.57825069855428     1.52608356618476     4.57825069855428
Ra     1.52608356618476     4.57825069855428     4.57825069855428
O     3.05216713236953     0.00000000000000     0.00000000000000
O     0.00000000000000     3.05216713236953     0.00000000000000
O     0.00000000000000     0.00000000000000     3.05216713236953
O     3.05216713236953     3.05216713236953     0.00000000000000
O     3.05216713236953     0.00000000000000     3.05216713236953
O     0.00000000000000     3.05216713236953     3.05216713236953