CRYSTAL
# Primitive lattice vectors in Angstrom
PRIMVEC
 4.30296192855971 0.00000000000000 0.00000000000000
 -0.00000000000000 4.30296192855971 0.00000000000000
 0.00000000000000 0.00000000000000 4.30296192855971
# Cartesian coordinates in Angstrom.
PRIMCOORD
 4 1
Ra     0.00000000000000     0.00000000000000     0.00000000000000
O     2.15148096427985     0.00000000000000     0.00000000000000
O     0.00000000000000     2.15148096427985     0.00000000000000
O     0.00000000000000     0.00000000000000     2.15148096427985