CRYSTAL
# Primitive lattice vectors in Angstrom
PRIMVEC
 5.97001933077598 0.00000000000000 0.00000000000000
 -0.00000000000000 5.97001933077598 0.00000000000000
 0.00000000000000 0.00000000000000 5.97001933077598
# Cartesian coordinates in Angstrom.
PRIMCOORD
 14 1
Ra     0.00000000000000     0.00000000000000     0.00000000000000
Ra     2.98500966538799     2.98500966538799     0.00000000000000
Ra     2.98500966538799     0.00000000000000     2.98500966538799
Ra     0.00000000000000     2.98500966538799     2.98500966538799
O     2.98500966538799     0.00000000000000     0.00000000000000
O     0.00000000000000     2.98500966538799     0.00000000000000
O     0.00000000000000     0.00000000000000     2.98500966538799
O     2.98500966538799     2.98500966538799     2.98500966538799
O     4.47751449808198     4.47751449808198     1.49250483269399
O     4.47751449808198     1.49250483269399     4.47751449808198
O     1.49250483269399     4.47751449808198     4.47751449808198
O     4.47751449808198     1.49250483269399     1.49250483269399
O     1.49250483269399     4.47751449808198     1.49250483269399
O     1.49250483269399     1.49250483269399     4.47751449808198