CRYSTAL
# Primitive lattice vectors in Angstrom
PRIMVEC
 3.43859396977693 0.00000000000000 1.98527315408453
 1.14619798992564 3.24193748503525 1.98527315408453
 0.00000000000000 0.00000000000000 3.97054630816906
# Cartesian coordinates in Angstrom.
PRIMCOORD
 2 1
Ra     0.00000000000000     0.00000000000000     0.00000000000000
O     2.29239597985129     1.62096874251762     3.97054630816906