CRYSTAL
# Primitive lattice vectors in Angstrom
PRIMVEC
 4.26453421411368 0.00000000000000 0.00000000000000
 -0.00000000000000 4.26453421411368 0.00000000000000
 0.00000000000000 0.00000000000000 4.26453421411368
# Cartesian coordinates in Angstrom.
PRIMCOORD
 4 1
Rb     0.00000000000000     0.00000000000000     0.00000000000000
O     2.13226710705683     0.00000000000000     0.00000000000000
O     0.00000000000000     2.13226710705683     0.00000000000000
O     0.00000000000000     0.00000000000000     2.13226710705683