CRYSTAL
# Primitive lattice vectors in Angstrom
PRIMVEC
 5.76710186154122 0.00000000000000 0.00000000000000
 -0.00000000000000 5.76710186154122 0.00000000000000
 0.00000000000000 0.00000000000000 5.76710186154122
# Cartesian coordinates in Angstrom.
PRIMCOORD
 14 1
Rb     0.00000000000000     0.00000000000000     0.00000000000000
Rb     2.88355093077061     2.88355093077061     0.00000000000000
Rb     2.88355093077061     0.00000000000000     2.88355093077061
Rb     0.00000000000000     2.88355093077061     2.88355093077061
O     2.88355093077061     0.00000000000000     0.00000000000000
O     0.00000000000000     2.88355093077061     0.00000000000000
O     0.00000000000000     0.00000000000000     2.88355093077061
O     2.88355093077061     2.88355093077061     2.88355093077061
O     4.32532639615592     4.32532639615592     1.44177546538531
O     4.32532639615592     1.44177546538531     4.32532639615592
O     1.44177546538531     4.32532639615592     4.32532639615592
O     4.32532639615592     1.44177546538531     1.44177546538531
O     1.44177546538531     4.32532639615592     1.44177546538531
O     1.44177546538531     1.44177546538531     4.32532639615592