CRYSTAL
# Primitive lattice vectors in Angstrom
PRIMVEC
 3.68597765432797 0.00000000000000 2.12810019095320
 1.22865921810932 3.47517305956986 2.12810019095320
 0.00000000000000 0.00000000000000 4.25620038190640
# Cartesian coordinates in Angstrom.
PRIMCOORD
 3 1
Rb     0.00000000000000     0.00000000000000     0.00000000000000
O     1.22865921810932     0.86879326489246     2.12810019095320
O     3.68597765432797     2.60637979467739     6.38430057285960