CRYSTAL
# Primitive lattice vectors in Angstrom
PRIMVEC
 6.05445637868629 0.00000000000000 0.00000000000000
 -0.00000000000000 6.05445637868629 0.00000000000000
 0.00000000000000 0.00000000000000 6.05445637868629
# Cartesian coordinates in Angstrom.
PRIMCOORD
 10 1
Rb     1.51361409467157     1.51361409467157     1.51361409467157
Rb     4.54084228401472     4.54084228401472     1.51361409467157
Rb     4.54084228401472     1.51361409467157     4.54084228401472
Rb     1.51361409467157     4.54084228401472     4.54084228401472
O     3.02722818934315     0.00000000000000     0.00000000000000
O     0.00000000000000     3.02722818934315     0.00000000000000
O     0.00000000000000     0.00000000000000     3.02722818934315
O     3.02722818934315     3.02722818934315     0.00000000000000
O     3.02722818934315     0.00000000000000     3.02722818934315
O     0.00000000000000     3.02722818934315     3.02722818934315