CRYSTAL
# Primitive lattice vectors in Angstrom
PRIMVEC
 3.31416721549140 0.00000000000000 1.91343533400339
 1.10472240516380 3.12462681608014 1.91343533400339
 0.00000000000000 0.00000000000000 3.82687066800677
# Cartesian coordinates in Angstrom.
PRIMCOORD
 2 1
Rb     0.00000000000000     0.00000000000000     0.00000000000000
O     2.20944481032760     1.56231340804006     3.82687066800677