CRYSTAL
# Primitive lattice vectors in Angstrom
PRIMVEC
 4.00178863763903 0.00000000000000 2.31043374718088
 1.33392954587967 3.77292251006645 2.31043374718088
 0.00000000000000 0.00000000000000 4.62086749436177
# Cartesian coordinates in Angstrom.
PRIMCOORD
 3 1
Rb     1.33392954587967     0.94323062751661     2.31043374718088
Rb     4.00178863763903     2.82969188254984     6.93130124154265
O     0.00000000000000     0.00000000000000     0.00000000000000