CRYSTAL
# Primitive lattice vectors in Angstrom
PRIMVEC
 2.94188850544554 0.00000000000000 1.69850012054485
 0.98062950181518 2.77363908226040 1.69850012054485
 0.00000000000000 0.00000000000000 3.39700024108970
# Cartesian coordinates in Angstrom.
PRIMCOORD
 3 1
Re     0.00000000000000     0.00000000000000     0.00000000000000
O     0.98062950181518     0.69340977056510     1.69850012054485
O     2.94188850544554     2.08022931169530     5.09550036163455