CRYSTAL
# Primitive lattice vectors in Angstrom
PRIMVEC
 4.89415582158486 0.00000000000000 0.00000000000000
 -0.00000000000000 4.89415582158486 0.00000000000000
 0.00000000000000 0.00000000000000 4.89415582158486
# Cartesian coordinates in Angstrom.
PRIMCOORD
 14 1
Re     0.00000000000000     0.00000000000000     0.00000000000000
Re     2.44707791079243     2.44707791079243     0.00000000000000
Re     2.44707791079243     0.00000000000000     2.44707791079243
Re     0.00000000000000     2.44707791079243     2.44707791079243
O     2.44707791079243     0.00000000000000     0.00000000000000
O     0.00000000000000     2.44707791079243     0.00000000000000
O     0.00000000000000     0.00000000000000     2.44707791079243
O     2.44707791079243     2.44707791079243     2.44707791079243
O     3.67061686618865     3.67061686618865     1.22353895539622
O     3.67061686618865     1.22353895539622     3.67061686618865
O     1.22353895539622     3.67061686618865     3.67061686618865
O     3.67061686618865     1.22353895539622     1.22353895539622
O     1.22353895539622     3.67061686618865     1.22353895539622
O     1.22353895539622     1.22353895539622     3.67061686618865