CRYSTAL
# Primitive lattice vectors in Angstrom
PRIMVEC
 4.71471678192547 0.00000000000000 0.00000000000000
 -0.00000000000000 4.71471678192547 0.00000000000000
 0.00000000000000 0.00000000000000 4.71471678192547
# Cartesian coordinates in Angstrom.
PRIMCOORD
 10 1
Re     1.17867919548137     1.17867919548137     1.17867919548137
Re     3.53603758644411     3.53603758644411     1.17867919548137
Re     3.53603758644411     1.17867919548137     3.53603758644411
Re     1.17867919548137     3.53603758644411     3.53603758644411
O     2.35735839096274     0.00000000000000     0.00000000000000
O     0.00000000000000     2.35735839096274     0.00000000000000
O     0.00000000000000     0.00000000000000     2.35735839096274
O     2.35735839096274     2.35735839096274     0.00000000000000
O     2.35735839096274     0.00000000000000     2.35735839096274
O     0.00000000000000     2.35735839096274     2.35735839096274