CRYSTAL
# Primitive lattice vectors in Angstrom
PRIMVEC
 3.72440362842297 0.00000000000000 0.00000000000000
 -0.00000000000000 3.72440362842297 0.00000000000000
 0.00000000000000 0.00000000000000 3.72440362842297
# Cartesian coordinates in Angstrom.
PRIMCOORD
 4 1
Re     0.00000000000000     0.00000000000000     0.00000000000000
O     1.86220181421148     0.00000000000000     0.00000000000000
O     0.00000000000000     1.86220181421148     0.00000000000000
O     0.00000000000000     0.00000000000000     1.86220181421148