CRYSTAL
# Primitive lattice vectors in Angstrom
PRIMVEC
 3.26634123350552 0.00000000000000 1.88582299042959
 1.08878041116850 3.07953604784131 1.88582299042959
 0.00000000000000 0.00000000000000 3.77164598085918
# Cartesian coordinates in Angstrom.
PRIMCOORD
 3 1
Re     1.08878041116850     0.76988401196033     1.88582299042959
Re     3.26634123350552     2.30965203588099     5.65746897128877
O     0.00000000000000     0.00000000000000     0.00000000000000