CRYSTAL
# Primitive lattice vectors in Angstrom
PRIMVEC
 2.66907389823099 0.00000000000000 1.54099053363067
 0.88969129941033 2.51642700390286 1.54099053363067
 0.00000000000000 0.00000000000000 3.08198106726133
# Cartesian coordinates in Angstrom.
PRIMCOORD
 2 1
Re     0.00000000000000     0.00000000000000     0.00000000000000
O     1.77938259882066     1.25821350195143     3.08198106726133