CRYSTAL
# Primitive lattice vectors in Angstrom
PRIMVEC
 4.66664390453434 0.00000000000000 0.00000000000000
 -0.00000000000000 4.66664390453434 0.00000000000000
 0.00000000000000 0.00000000000000 4.66664390453434
# Cartesian coordinates in Angstrom.
PRIMCOORD
 10 1
Rh     1.16666097613358     1.16666097613358     1.16666097613358
Rh     3.49998292840076     3.49998292840076     1.16666097613358
Rh     3.49998292840076     1.16666097613358     3.49998292840076
Rh     1.16666097613358     3.49998292840076     3.49998292840076
O     2.33332195226718     0.00000000000000     0.00000000000000
O     0.00000000000000     2.33332195226718     0.00000000000000
O     0.00000000000000     0.00000000000000     2.33332195226718
O     2.33332195226718     2.33332195226718     0.00000000000000
O     2.33332195226718     0.00000000000000     2.33332195226718
O     0.00000000000000     2.33332195226718     2.33332195226718