CRYSTAL
# Primitive lattice vectors in Angstrom
PRIMVEC
 2.94296980140497 0.00000000000000 1.69912440705810
 0.98098993380165 2.77465853786758 1.69912440705810
 0.00000000000000 0.00000000000000 3.39824881411620
# Cartesian coordinates in Angstrom.
PRIMCOORD
 3 1
Rh     0.00000000000000     0.00000000000000     0.00000000000000
O     0.98098993380165     0.69366463446689     1.69912440705810
O     2.94296980140497     2.08099390340068     5.09737322117430