CRYSTAL
# Primitive lattice vectors in Angstrom
PRIMVEC
 4.94750969957537 0.00000000000000 0.00000000000000
 -0.00000000000000 4.94750969957537 0.00000000000000
 0.00000000000000 0.00000000000000 4.94750969957537
# Cartesian coordinates in Angstrom.
PRIMCOORD
 14 1
Rh     0.00000000000000     0.00000000000000     0.00000000000000
Rh     2.47375484978768     2.47375484978768     0.00000000000000
Rh     2.47375484978768     0.00000000000000     2.47375484978768
Rh     0.00000000000000     2.47375484978768     2.47375484978768
O     2.47375484978768     0.00000000000000     0.00000000000000
O     0.00000000000000     2.47375484978768     0.00000000000000
O     0.00000000000000     0.00000000000000     2.47375484978768
O     2.47375484978768     2.47375484978768     2.47375484978768
O     3.71063227468153     3.71063227468153     1.23687742489384
O     3.71063227468153     1.23687742489384     3.71063227468153
O     1.23687742489384     3.71063227468153     3.71063227468153
O     3.71063227468153     1.23687742489384     1.23687742489384
O     1.23687742489384     3.71063227468153     1.23687742489384
O     1.23687742489384     1.23687742489384     3.71063227468153