CRYSTAL
# Primitive lattice vectors in Angstrom
PRIMVEC
 2.65291310867480 0.00000000000000 1.53166009743008
 0.88430436955827 2.50119046539018 1.53166009743008
 0.00000000000000 0.00000000000000 3.06332019486016
# Cartesian coordinates in Angstrom.
PRIMCOORD
 2 1
Rh     0.00000000000000     0.00000000000000     0.00000000000000
O     1.76860873911653     1.25059523269508     3.06332019486016