CRYSTAL
# Primitive lattice vectors in Angstrom
PRIMVEC
 3.70711447682261 0.00000000000000 0.00000000000000
 -0.00000000000000 3.70711447682261 0.00000000000000
 0.00000000000000 0.00000000000000 3.70711447682261
# Cartesian coordinates in Angstrom.
PRIMCOORD
 4 1
Rh     0.00000000000000     0.00000000000000     0.00000000000000
O     1.85355723841130     0.00000000000000     0.00000000000000
O     0.00000000000000     1.85355723841130     0.00000000000000
O     0.00000000000000     0.00000000000000     1.85355723841130