CRYSTAL
# Primitive lattice vectors in Angstrom
PRIMVEC
 3.21228009727711 0.00000000000000 1.85461077887542
 1.07076003242570 3.02856671980697 1.85461077887542
 0.00000000000000 0.00000000000000 3.70922155775084
# Cartesian coordinates in Angstrom.
PRIMCOORD
 3 1
Rh     1.07076003242570     0.75714167995174     1.85461077887542
Rh     3.21228009727711     2.27142503985523     5.56383233662626
O     0.00000000000000     0.00000000000000     0.00000000000000