CRYSTAL
# Primitive lattice vectors in Angstrom
PRIMVEC
 4.50774986752867 0.00000000000000 2.60255059945718
 1.50258328917622 4.24994733229638 2.60255059945718
 0.00000000000000 0.00000000000000 5.20510119891436
# Cartesian coordinates in Angstrom.
PRIMCOORD
 3 1
Rn     1.50258328917622     1.06248683307409     2.60255059945718
Rn     4.50774986752867     3.18746049922229     7.80765179837154
O     0.00000000000000     0.00000000000000     0.00000000000000