CRYSTAL
# Primitive lattice vectors in Angstrom
PRIMVEC
 3.38683793051679 0.00000000000000 1.95539179088550
 1.12894597683893 3.19314142326431 1.95539179088550
 0.00000000000000 0.00000000000000 3.91078358177100
# Cartesian coordinates in Angstrom.
PRIMCOORD
 2 1
Rn     0.00000000000000     0.00000000000000     0.00000000000000
O     2.25789195367786     1.59657071163215     3.91078358177100