CRYSTAL
# Primitive lattice vectors in Angstrom
PRIMVEC
 5.49430200498970 0.00000000000000 0.00000000000000
 -0.00000000000000 5.49430200498970 0.00000000000000
 0.00000000000000 0.00000000000000 5.49430200498970
# Cartesian coordinates in Angstrom.
PRIMCOORD
 14 1
Rn     0.00000000000000     0.00000000000000     0.00000000000000
Rn     2.74715100249485     2.74715100249485     0.00000000000000
Rn     2.74715100249485     0.00000000000000     2.74715100249485
Rn     0.00000000000000     2.74715100249485     2.74715100249485
O     2.74715100249485     0.00000000000000     0.00000000000000
O     0.00000000000000     2.74715100249485     0.00000000000000
O     0.00000000000000     0.00000000000000     2.74715100249485
O     2.74715100249485     2.74715100249485     2.74715100249485
O     4.12072650374227     4.12072650374227     1.37357550124742
O     4.12072650374227     1.37357550124742     4.12072650374227
O     1.37357550124742     4.12072650374227     4.12072650374227
O     4.12072650374227     1.37357550124742     1.37357550124742
O     1.37357550124742     4.12072650374227     1.37357550124742
O     1.37357550124742     1.37357550124742     4.12072650374227