CRYSTAL
# Primitive lattice vectors in Angstrom
PRIMVEC
 3.44913956714148 0.00000000000000 1.99136165756172
 1.14971318904716 3.25187996957944 1.99136165756172
 0.00000000000000 0.00000000000000 3.98272331512345
# Cartesian coordinates in Angstrom.
PRIMCOORD
 3 1
Rn     0.00000000000000     0.00000000000000     0.00000000000000
O     1.14971318904716     0.81296999239486     1.99136165756172
O     3.44913956714148     2.43890997718458     5.97408497268518