CRYSTAL
# Primitive lattice vectors in Angstrom
PRIMVEC
 5.69548702305733 0.00000000000000 0.00000000000000
 -0.00000000000000 5.69548702305733 0.00000000000000
 0.00000000000000 0.00000000000000 5.69548702305733
# Cartesian coordinates in Angstrom.
PRIMCOORD
 10 1
Rn     1.42387175576433     1.42387175576433     1.42387175576433
Rn     4.27161526729300     4.27161526729300     1.42387175576433
Rn     4.27161526729300     1.42387175576433     4.27161526729300
Rn     1.42387175576433     4.27161526729300     4.27161526729300
O     2.84774351152867     0.00000000000000     0.00000000000000
O     0.00000000000000     2.84774351152867     0.00000000000000
O     0.00000000000000     0.00000000000000     2.84774351152867
O     2.84774351152867     2.84774351152867     0.00000000000000
O     2.84774351152867     0.00000000000000     2.84774351152867
O     0.00000000000000     2.84774351152867     2.84774351152867