CRYSTAL
# Primitive lattice vectors in Angstrom
PRIMVEC
 4.65395272783493 0.00000000000000 0.00000000000000
 -0.00000000000000 4.65395272783493 0.00000000000000
 0.00000000000000 0.00000000000000 4.65395272783493
# Cartesian coordinates in Angstrom.
PRIMCOORD
 10 1
Ru     1.16348818195873     1.16348818195873     1.16348818195873
Ru     3.49046454587620     3.49046454587620     1.16348818195873
Ru     3.49046454587620     1.16348818195873     3.49046454587620
Ru     1.16348818195873     3.49046454587620     3.49046454587620
O     2.32697636391747     0.00000000000000     0.00000000000000
O     0.00000000000000     2.32697636391747     0.00000000000000
O     0.00000000000000     0.00000000000000     2.32697636391747
O     2.32697636391747     2.32697636391747     0.00000000000000
O     2.32697636391747     0.00000000000000     2.32697636391747
O     0.00000000000000     2.32697636391747     2.32697636391747