CRYSTAL
# Primitive lattice vectors in Angstrom
PRIMVEC
 3.19424316544013 0.00000000000000 1.84419715142398
 1.06474772181337 3.01156133738866 1.84419715142398
 0.00000000000000 0.00000000000000 3.68839430284796
# Cartesian coordinates in Angstrom.
PRIMCOORD
 3 1
Ru     1.06474772181337     0.75289033434716     1.84419715142398
Ru     3.19424316544013     2.25867100304150     5.53259145427194
O     0.00000000000000     0.00000000000000     0.00000000000000