CRYSTAL
# Primitive lattice vectors in Angstrom
PRIMVEC
 2.89870184689789 0.00000000000000 1.67356629160696
 0.96623394896596 2.73292231010596 1.67356629160696
 0.00000000000000 0.00000000000000 3.34713258321392
# Cartesian coordinates in Angstrom.
PRIMCOORD
 3 1
Ru     0.00000000000000     0.00000000000000     0.00000000000000
O     0.96623394896596     0.68323057752649     1.67356629160696
O     2.89870184689789     2.04969173257947     5.02069887482089