CRYSTAL
# Primitive lattice vectors in Angstrom
PRIMVEC
 4.90293860939826 0.00000000000000 0.00000000000000
 -0.00000000000000 4.90293860939826 0.00000000000000
 0.00000000000000 0.00000000000000 4.90293860939826
# Cartesian coordinates in Angstrom.
PRIMCOORD
 14 1
Ru     0.00000000000000     0.00000000000000     0.00000000000000
Ru     2.45146930469913     2.45146930469913     0.00000000000000
Ru     2.45146930469913     0.00000000000000     2.45146930469913
Ru     0.00000000000000     2.45146930469913     2.45146930469913
O     2.45146930469913     0.00000000000000     0.00000000000000
O     0.00000000000000     2.45146930469913     0.00000000000000
O     0.00000000000000     0.00000000000000     2.45146930469913
O     2.45146930469913     2.45146930469913     2.45146930469913
O     3.67720395704869     3.67720395704869     1.22573465234956
O     3.67720395704869     1.22573465234956     3.67720395704869
O     1.22573465234956     3.67720395704869     3.67720395704869
O     3.67720395704869     1.22573465234956     1.22573465234956
O     1.22573465234956     3.67720395704869     1.22573465234956
O     1.22573465234956     1.22573465234956     3.67720395704869