CRYSTAL
# Primitive lattice vectors in Angstrom
PRIMVEC
 2.63315233782757 0.00000000000000 1.52025121106204
 0.87771744594252 2.48255983196678 1.52025121106204
 0.00000000000000 0.00000000000000 3.04050242212408
# Cartesian coordinates in Angstrom.
PRIMCOORD
 2 1
Ru     0.00000000000000     0.00000000000000     0.00000000000000
O     1.75543489188505     1.24127991598339     3.04050242212408