CRYSTAL
# Primitive lattice vectors in Angstrom
PRIMVEC
 3.30380377282653 0.00000000000000 1.90745199759110
 1.10126792427551 3.11485606863378 1.90745199759110
 0.00000000000000 0.00000000000000 3.81490399518220
# Cartesian coordinates in Angstrom.
PRIMCOORD
 3 1
S     1.10126792427551     0.77871401715844     1.90745199759110
S     3.30380377282653     2.33614205147534     5.72235599277329
O     0.00000000000000     0.00000000000000     0.00000000000000