CRYSTAL
# Primitive lattice vectors in Angstrom
PRIMVEC
 4.78414345369841 0.00000000000000 0.00000000000000
 -0.00000000000000 4.78414345369841 0.00000000000000
 0.00000000000000 0.00000000000000 4.78414345369841
# Cartesian coordinates in Angstrom.
PRIMCOORD
 10 1
S     1.19603586342460     1.19603586342460     1.19603586342460
S     3.58810759027381     3.58810759027381     1.19603586342460
S     3.58810759027381     1.19603586342460     3.58810759027381
S     1.19603586342460     3.58810759027381     3.58810759027381
O     2.39207172684921     0.00000000000000     0.00000000000000
O     0.00000000000000     2.39207172684921     0.00000000000000
O     0.00000000000000     0.00000000000000     2.39207172684921
O     2.39207172684921     2.39207172684921     0.00000000000000
O     2.39207172684921     0.00000000000000     2.39207172684921
O     0.00000000000000     2.39207172684921     2.39207172684921