CRYSTAL
# Primitive lattice vectors in Angstrom
PRIMVEC
 4.97707790693708 0.00000000000000 0.00000000000000
 -0.00000000000000 4.97707790693708 0.00000000000000
 0.00000000000000 0.00000000000000 4.97707790693708
# Cartesian coordinates in Angstrom.
PRIMCOORD
 14 1
S     0.00000000000000     0.00000000000000     0.00000000000000
S     2.48853895346854     2.48853895346854     0.00000000000000
S     2.48853895346854     0.00000000000000     2.48853895346854
S     0.00000000000000     2.48853895346854     2.48853895346854
O     2.48853895346854     0.00000000000000     0.00000000000000
O     0.00000000000000     2.48853895346854     0.00000000000000
O     0.00000000000000     0.00000000000000     2.48853895346854
O     2.48853895346854     2.48853895346854     2.48853895346854
O     3.73280843020281     3.73280843020281     1.24426947673427
O     3.73280843020281     1.24426947673427     3.73280843020281
O     1.24426947673427     3.73280843020281     3.73280843020281
O     3.73280843020281     1.24426947673427     1.24426947673427
O     1.24426947673427     3.73280843020281     1.24426947673427
O     1.24426947673427     1.24426947673427     3.73280843020281