CRYSTAL
# Primitive lattice vectors in Angstrom
PRIMVEC
 2.94286263860236 0.00000000000000 1.69906253658516
 0.98095421286745 2.77455750380836 1.69906253658516
 0.00000000000000 0.00000000000000 3.39812507317033
# Cartesian coordinates in Angstrom.
PRIMCOORD
 3 1
S     0.00000000000000     0.00000000000000     0.00000000000000
O     0.98095421286745     0.69363937595209     1.69906253658516
O     2.94286263860236     2.08091812785627     5.09718760975550