CRYSTAL
# Primitive lattice vectors in Angstrom
PRIMVEC
 2.76857907550805 0.00000000000000 1.59843987451733
 0.92285969183602 2.61024138472390 1.59843987451733
 0.00000000000000 0.00000000000000 3.19687974903467
# Cartesian coordinates in Angstrom.
PRIMCOORD
 2 1
S     0.00000000000000     0.00000000000000     0.00000000000000
O     1.84571938367203     1.30512069236194     3.19687974903467