CRYSTAL
# Primitive lattice vectors in Angstrom
PRIMVEC
 3.30366872988500 0.00000000000000 0.00000000000000
 -0.00000000000000 3.30366872988500 0.00000000000000
 0.00000000000000 0.00000000000000 3.30366872988500
# Cartesian coordinates in Angstrom.
PRIMCOORD
 4 1
S     0.00000000000000     0.00000000000000     0.00000000000000
O     1.65183436494250     0.00000000000000     0.00000000000000
O     0.00000000000000     1.65183436494250     0.00000000000000
O     0.00000000000000     0.00000000000000     1.65183436494250