CRYSTAL
# Primitive lattice vectors in Angstrom
PRIMVEC
 5.25765593573774 0.00000000000000 0.00000000000000
 -0.00000000000000 5.25765593573774 0.00000000000000
 0.00000000000000 0.00000000000000 5.25765593573774
# Cartesian coordinates in Angstrom.
PRIMCOORD
 14 1
Sb     0.00000000000000     0.00000000000000     0.00000000000000
Sb     2.62882796786887     2.62882796786887     0.00000000000000
Sb     2.62882796786887     0.00000000000000     2.62882796786887
Sb     0.00000000000000     2.62882796786887     2.62882796786887
O     2.62882796786887     0.00000000000000     0.00000000000000
O     0.00000000000000     2.62882796786887     0.00000000000000
O     0.00000000000000     0.00000000000000     2.62882796786887
O     2.62882796786887     2.62882796786887     2.62882796786887
O     3.94324195180330     3.94324195180330     1.31441398393443
O     3.94324195180330     1.31441398393443     3.94324195180330
O     1.31441398393443     3.94324195180330     3.94324195180330
O     3.94324195180330     1.31441398393443     1.31441398393443
O     1.31441398393443     3.94324195180330     1.31441398393443
O     1.31441398393443     1.31441398393443     3.94324195180330