CRYSTAL
# Primitive lattice vectors in Angstrom
PRIMVEC
 3.07254983707728 0.00000000000000 1.77393747553511
 1.02418327902576 2.89682776710796 1.77393747553511
 0.00000000000000 0.00000000000000 3.54787495107021
# Cartesian coordinates in Angstrom.
PRIMCOORD
 2 1
Sb     0.00000000000000     0.00000000000000     0.00000000000000
O     2.04836655805152     1.44841388355397     3.54787495107021