CRYSTAL
# Primitive lattice vectors in Angstrom
PRIMVEC
 5.28269881570203 0.00000000000000 0.00000000000000
 -0.00000000000000 5.28269881570203 0.00000000000000
 0.00000000000000 0.00000000000000 5.28269881570203
# Cartesian coordinates in Angstrom.
PRIMCOORD
 10 1
Sb     1.32067470392550     1.32067470392550     1.32067470392550
Sb     3.96202411177652     3.96202411177652     1.32067470392550
Sb     3.96202411177652     1.32067470392550     3.96202411177652
Sb     1.32067470392550     3.96202411177652     3.96202411177652
O     2.64134940785102     0.00000000000000     0.00000000000000
O     0.00000000000000     2.64134940785102     0.00000000000000
O     0.00000000000000     0.00000000000000     2.64134940785102
O     2.64134940785102     2.64134940785102     0.00000000000000
O     2.64134940785102     0.00000000000000     2.64134940785102
O     0.00000000000000     2.64134940785102     2.64134940785102