CRYSTAL
# Primitive lattice vectors in Angstrom
PRIMVEC
 3.85335741444284 0.00000000000000 0.00000000000000
 -0.00000000000000 3.85335741444284 0.00000000000000
 0.00000000000000 0.00000000000000 3.85335741444284
# Cartesian coordinates in Angstrom.
PRIMCOORD
 4 1
Sb     0.00000000000000     0.00000000000000     0.00000000000000
O     1.92667870722142     0.00000000000000     0.00000000000000
O     0.00000000000000     1.92667870722142     0.00000000000000
O     0.00000000000000     0.00000000000000     1.92667870722142