CRYSTAL
# Primitive lattice vectors in Angstrom
PRIMVEC
 3.18852712250222 0.00000000000000 1.84089699249508
 1.06284237416740 3.00617220042474 1.84089699249508
 0.00000000000000 0.00000000000000 3.68179398499016
# Cartesian coordinates in Angstrom.
PRIMCOORD
 3 1
Sb     0.00000000000000     0.00000000000000     0.00000000000000
O     1.06284237416740     0.75154305010618     1.84089699249508
O     3.18852712250222     2.25462915031855     5.52269097748525