CRYSTAL
# Primitive lattice vectors in Angstrom
PRIMVEC
 3.74713261384734 0.00000000000000 2.16340802329399
 1.24904420461578 3.53283050834230 2.16340802329399
 0.00000000000000 0.00000000000000 4.32681604658798
# Cartesian coordinates in Angstrom.
PRIMCOORD
 3 1
Sb     1.24904420461578     0.88320762708557     2.16340802329399
Sb     3.74713261384734     2.64962288125673     6.49022406988197
O     0.00000000000000     0.00000000000000     0.00000000000000