CRYSTAL
# Primitive lattice vectors in Angstrom
PRIMVEC
 4.88778885436584 0.00000000000000 0.00000000000000
 -0.00000000000000 4.88778885436584 0.00000000000000
 0.00000000000000 0.00000000000000 4.88778885436584
# Cartesian coordinates in Angstrom.
PRIMCOORD
 10 1
Sc     1.22194721359146     1.22194721359146     1.22194721359146
Sc     3.66584164077439     3.66584164077439     1.22194721359146
Sc     3.66584164077439     1.22194721359146     3.66584164077439
Sc     1.22194721359146     3.66584164077439     3.66584164077439
O     2.44389442718293     0.00000000000000     0.00000000000000
O     0.00000000000000     2.44389442718293     0.00000000000000
O     0.00000000000000     0.00000000000000     2.44389442718293
O     2.44389442718293     2.44389442718293     0.00000000000000
O     2.44389442718293     0.00000000000000     2.44389442718293
O     0.00000000000000     2.44389442718293     2.44389442718293