CRYSTAL
# Primitive lattice vectors in Angstrom
PRIMVEC
 5.09409562446872 0.00000000000000 0.00000000000000
 -0.00000000000000 5.09409562446872 0.00000000000000
 0.00000000000000 0.00000000000000 5.09409562446872
# Cartesian coordinates in Angstrom.
PRIMCOORD
 14 1
Sc     0.00000000000000     0.00000000000000     0.00000000000000
Sc     2.54704781223436     2.54704781223436     0.00000000000000
Sc     2.54704781223436     0.00000000000000     2.54704781223436
Sc     0.00000000000000     2.54704781223436     2.54704781223436
O     2.54704781223436     0.00000000000000     0.00000000000000
O     0.00000000000000     2.54704781223436     0.00000000000000
O     0.00000000000000     0.00000000000000     2.54704781223436
O     2.54704781223436     2.54704781223436     2.54704781223436
O     3.82057171835154     3.82057171835154     1.27352390611718
O     3.82057171835154     1.27352390611718     3.82057171835154
O     1.27352390611718     3.82057171835154     3.82057171835154
O     3.82057171835154     1.27352390611718     1.27352390611718
O     1.27352390611718     3.82057171835154     1.27352390611718
O     1.27352390611718     1.27352390611718     3.82057171835154