CRYSTAL
# Primitive lattice vectors in Angstrom
PRIMVEC
 2.67351577950372 0.00000000000000 1.54355505497918
 0.89117192650124 2.52061484972843 1.54355505497918
 0.00000000000000 0.00000000000000 3.08711010995837
# Cartesian coordinates in Angstrom.
PRIMCOORD
 2 1
Sc     0.00000000000000     0.00000000000000     0.00000000000000
O     1.78234385300248     1.26030742486421     3.08711010995837