CRYSTAL
# Primitive lattice vectors in Angstrom
PRIMVEC
 3.04616652374585 0.00000000000000 1.75870506248109
 1.01538884124861 2.87195334075219 1.75870506248109
 0.00000000000000 0.00000000000000 3.51741012496218
# Cartesian coordinates in Angstrom.
PRIMCOORD
 3 1
Sc     0.00000000000000     0.00000000000000     0.00000000000000
O     1.01538884124861     0.71798833518805     1.75870506248109
O     3.04616652374585     2.15396500556415     5.27611518744329