CRYSTAL
# Primitive lattice vectors in Angstrom
PRIMVEC
 3.29663135861626 0.00000000000000 1.90331100231606
 1.09887711953875 3.10809385166637 1.90331100231606
 0.00000000000000 0.00000000000000 3.80662200463213
# Cartesian coordinates in Angstrom.
PRIMCOORD
 3 1
Sc     1.09887711953875     0.77702346291659     1.90331100231606
Sc     3.29663135861626     2.33107038874978     5.70993300694819
O     0.00000000000000     0.00000000000000     0.00000000000000