CRYSTAL
# Primitive lattice vectors in Angstrom
PRIMVEC
 4.03345957710550 0.00000000000000 0.00000000000000
 -0.00000000000000 4.03345957710550 0.00000000000000
 0.00000000000000 0.00000000000000 4.03345957710550
# Cartesian coordinates in Angstrom.
PRIMCOORD
 4 1
Sc     0.00000000000000     0.00000000000000     0.00000000000000
O     2.01672978855275     0.00000000000000     0.00000000000000
O     0.00000000000000     2.01672978855275     0.00000000000000
O     0.00000000000000     0.00000000000000     2.01672978855275