CRYSTAL
# Primitive lattice vectors in Angstrom
PRIMVEC
 3.05431444860138 0.00000000000000 1.76340926908977
 1.01810481620046 2.87963527797612 1.76340926908977
 0.00000000000000 0.00000000000000 3.52681853817954
# Cartesian coordinates in Angstrom.
PRIMCOORD
 3 1
Se     0.00000000000000     0.00000000000000     0.00000000000000
O     1.01810481620046     0.71990881949403     1.76340926908977
O     3.05431444860138     2.15972645848209     5.29022780726931