CRYSTAL
# Primitive lattice vectors in Angstrom
PRIMVEC
 3.48619670500766 0.00000000000000 2.01275660608416
 1.16206556833588 3.28681777421482 2.01275660608416
 0.00000000000000 0.00000000000000 4.02551321216832
# Cartesian coordinates in Angstrom.
PRIMCOORD
 3 1
Se     1.16206556833588     0.82170444355370     2.01275660608416
Se     3.48619670500766     2.46511333066112     6.03826981825249
O     0.00000000000000     0.00000000000000     0.00000000000000