CRYSTAL
# Primitive lattice vectors in Angstrom
PRIMVEC
 5.10532516620751 0.00000000000000 0.00000000000000
 -0.00000000000000 5.10532516620751 0.00000000000000
 0.00000000000000 0.00000000000000 5.10532516620751
# Cartesian coordinates in Angstrom.
PRIMCOORD
 14 1
Se     0.00000000000000     0.00000000000000     0.00000000000000
Se     2.55266258310375     2.55266258310375     0.00000000000000
Se     2.55266258310375     0.00000000000000     2.55266258310375
Se     0.00000000000000     2.55266258310375     2.55266258310375
O     2.55266258310375     0.00000000000000     0.00000000000000
O     0.00000000000000     2.55266258310375     0.00000000000000
O     0.00000000000000     0.00000000000000     2.55266258310375
O     2.55266258310375     2.55266258310375     2.55266258310375
O     3.82899387465563     3.82899387465563     1.27633129155188
O     3.82899387465563     1.27633129155188     3.82899387465563
O     1.27633129155188     3.82899387465563     3.82899387465563
O     3.82899387465563     1.27633129155188     1.27633129155188
O     1.27633129155188     3.82899387465563     1.27633129155188
O     1.27633129155188     1.27633129155188     3.82899387465563