CRYSTAL
# Primitive lattice vectors in Angstrom
PRIMVEC
 3.58765945314521 0.00000000000000 0.00000000000000
 -0.00000000000000 3.58765945314521 0.00000000000000
 0.00000000000000 0.00000000000000 3.58765945314521
# Cartesian coordinates in Angstrom.
PRIMCOORD
 4 1
Se     0.00000000000000     0.00000000000000     0.00000000000000
O     1.79382972657260     0.00000000000000     0.00000000000000
O     0.00000000000000     1.79382972657260     0.00000000000000
O     0.00000000000000     0.00000000000000     1.79382972657260