CRYSTAL
# Primitive lattice vectors in Angstrom
PRIMVEC
 2.89847320360294 0.00000000000000 1.67343428433907
 0.96615773453431 2.73270674314018 1.67343428433907
 0.00000000000000 0.00000000000000 3.34686856867814
# Cartesian coordinates in Angstrom.
PRIMCOORD
 2 1
Se     0.00000000000000     0.00000000000000     0.00000000000000
O     1.93231546906862     1.36635337157008     3.34686856867814