CRYSTAL
# Primitive lattice vectors in Angstrom
PRIMVEC
 4.98351752778970 0.00000000000000 0.00000000000000
 -0.00000000000000 4.98351752778970 0.00000000000000
 0.00000000000000 0.00000000000000 4.98351752778970
# Cartesian coordinates in Angstrom.
PRIMCOORD
 10 1
Se     1.24587938194742     1.24587938194742     1.24587938194742
Se     3.73763814584228     3.73763814584228     1.24587938194742
Se     3.73763814584228     1.24587938194742     3.73763814584228
Se     1.24587938194742     3.73763814584228     3.73763814584228
O     2.49175876389485     0.00000000000000     0.00000000000000
O     0.00000000000000     2.49175876389485     0.00000000000000
O     0.00000000000000     0.00000000000000     2.49175876389485
O     2.49175876389485     2.49175876389485     0.00000000000000
O     2.49175876389485     0.00000000000000     2.49175876389485
O     0.00000000000000     2.49175876389485     2.49175876389485