CRYSTAL
# Primitive lattice vectors in Angstrom
PRIMVEC
 2.77639659900693 0.00000000000000 1.60295332381381
 0.92546553300231 2.61761181656142 1.60295332381381
 0.00000000000000 0.00000000000000 3.20590664762762
# Cartesian coordinates in Angstrom.
PRIMCOORD
 2 1
Si     0.00000000000000     0.00000000000000     0.00000000000000
O     1.85093106600462     1.30880590828071     3.20590664762762