CRYSTAL
# Primitive lattice vectors in Angstrom
PRIMVEC
 4.51257997231065 0.00000000000000 0.00000000000000
 -0.00000000000000 4.51257997231065 0.00000000000000
 0.00000000000000 0.00000000000000 4.51257997231065
# Cartesian coordinates in Angstrom.
PRIMCOORD
 10 1
Si     1.12814499307766     1.12814499307766     1.12814499307766
Si     3.38443497923299     3.38443497923299     1.12814499307766
Si     3.38443497923299     1.12814499307766     3.38443497923299
Si     1.12814499307766     3.38443497923299     3.38443497923299
O     2.25628998615533     0.00000000000000     0.00000000000000
O     0.00000000000000     2.25628998615533     0.00000000000000
O     0.00000000000000     0.00000000000000     2.25628998615533
O     2.25628998615533     2.25628998615533     0.00000000000000
O     2.25628998615533     0.00000000000000     2.25628998615533
O     0.00000000000000     2.25628998615533     2.25628998615533