CRYSTAL
# Primitive lattice vectors in Angstrom
PRIMVEC
 3.33377096570027 0.00000000000000 1.92475356446361
 1.11125698856675 3.14310940902598 1.92475356446361
 0.00000000000000 0.00000000000000 3.84950712892722
# Cartesian coordinates in Angstrom.
PRIMCOORD
 3 1
Si     1.11125698856675     0.78577735225649     1.92475356446361
Si     3.33377096570027     2.35733205676948     5.77426069339083
O     0.00000000000000     0.00000000000000     0.00000000000000