CRYSTAL
# Primitive lattice vectors in Angstrom
PRIMVEC
 3.41468474673905 0.00000000000000 0.00000000000000
 -0.00000000000000 3.41468474673905 0.00000000000000
 0.00000000000000 0.00000000000000 3.41468474673905
# Cartesian coordinates in Angstrom.
PRIMCOORD
 4 1
Si     0.00000000000000     0.00000000000000     0.00000000000000
O     1.70734237336952     0.00000000000000     0.00000000000000
O     0.00000000000000     1.70734237336952     0.00000000000000
O     0.00000000000000     0.00000000000000     1.70734237336952