CRYSTAL
# Primitive lattice vectors in Angstrom
PRIMVEC
 2.76115140223646 0.00000000000000 1.59415150535453
 0.92038380074549 2.60323850720553 1.59415150535453
 0.00000000000000 0.00000000000000 3.18830301070907
# Cartesian coordinates in Angstrom.
PRIMCOORD
 3 1
Si     0.00000000000000     0.00000000000000     0.00000000000000
O     0.92038380074549     0.65080962680138     1.59415150535453
O     2.76115140223646     1.95242888040415     4.78245451606361