CRYSTAL
# Primitive lattice vectors in Angstrom
PRIMVEC
 4.84404952264439 0.00000000000000 0.00000000000000
 -0.00000000000000 4.84404952264439 0.00000000000000
 0.00000000000000 0.00000000000000 4.84404952264439
# Cartesian coordinates in Angstrom.
PRIMCOORD
 14 1
Si     0.00000000000000     0.00000000000000     0.00000000000000
Si     2.42202476132219     2.42202476132219     0.00000000000000
Si     2.42202476132219     0.00000000000000     2.42202476132219
Si     0.00000000000000     2.42202476132219     2.42202476132219
O     2.42202476132219     0.00000000000000     0.00000000000000
O     0.00000000000000     2.42202476132219     0.00000000000000
O     0.00000000000000     0.00000000000000     2.42202476132219
O     2.42202476132219     2.42202476132219     2.42202476132219
O     3.63303714198329     3.63303714198329     1.21101238066110
O     3.63303714198329     1.21101238066110     3.63303714198329
O     1.21101238066110     3.63303714198329     3.63303714198329
O     3.63303714198329     1.21101238066110     1.21101238066110
O     1.21101238066110     3.63303714198329     1.21101238066110
O     1.21101238066110     1.21101238066110     3.63303714198329