CRYSTAL
# Primitive lattice vectors in Angstrom
PRIMVEC
 4.04901476069125 0.00000000000000 0.00000000000000
 -0.00000000000000 4.04901476069125 0.00000000000000
 0.00000000000000 0.00000000000000 4.04901476069125
# Cartesian coordinates in Angstrom.
PRIMCOORD
 4 1
Sm     0.00000000000000     0.00000000000000     0.00000000000000
O     2.02450738034562     0.00000000000000     0.00000000000000
O     0.00000000000000     2.02450738034562     0.00000000000000
O     0.00000000000000     0.00000000000000     2.02450738034562