CRYSTAL
# Primitive lattice vectors in Angstrom
PRIMVEC
 5.21899189561406 0.00000000000000 0.00000000000000
 -0.00000000000000 5.21899189561406 0.00000000000000
 0.00000000000000 0.00000000000000 5.21899189561406
# Cartesian coordinates in Angstrom.
PRIMCOORD
 10 1
Sm     1.30474797390351     1.30474797390351     1.30474797390351
Sm     3.91424392171055     3.91424392171055     1.30474797390351
Sm     3.91424392171055     1.30474797390351     3.91424392171055
Sm     1.30474797390351     3.91424392171055     3.91424392171055
O     2.60949594780704     0.00000000000000     0.00000000000000
O     0.00000000000000     2.60949594780704     0.00000000000000
O     0.00000000000000     0.00000000000000     2.60949594780704
O     2.60949594780704     2.60949594780704     0.00000000000000
O     2.60949594780704     0.00000000000000     2.60949594780704
O     0.00000000000000     2.60949594780704     2.60949594780704