CRYSTAL
# Primitive lattice vectors in Angstrom
PRIMVEC
 3.44814070906771 0.00000000000000 1.99078496658395
 1.14938023635590 3.25093823715623 1.99078496658395
 0.00000000000000 0.00000000000000 3.98156993316791
# Cartesian coordinates in Angstrom.
PRIMCOORD
 3 1
Sm     1.14938023635590     0.81273455928905     1.99078496658395
Sm     3.44814070906771     2.43820367786717     5.97235489975186
O     0.00000000000000     0.00000000000000     0.00000000000000