CRYSTAL
# Primitive lattice vectors in Angstrom
PRIMVEC
 5.25388036191274 0.00000000000000 0.00000000000000
 -0.00000000000000 5.25388036191274 0.00000000000000
 0.00000000000000 0.00000000000000 5.25388036191274
# Cartesian coordinates in Angstrom.
PRIMCOORD
 14 1
Sm     0.00000000000000     0.00000000000000     0.00000000000000
Sm     2.62694018095637     2.62694018095637     0.00000000000000
Sm     2.62694018095637     0.00000000000000     2.62694018095637
Sm     0.00000000000000     2.62694018095637     2.62694018095637
O     2.62694018095637     0.00000000000000     0.00000000000000
O     0.00000000000000     2.62694018095637     0.00000000000000
O     0.00000000000000     0.00000000000000     2.62694018095637
O     2.62694018095637     2.62694018095637     2.62694018095637
O     3.94041027143455     3.94041027143455     1.31347009047818
O     3.94041027143455     1.31347009047818     3.94041027143455
O     1.31347009047818     3.94041027143455     3.94041027143455
O     3.94041027143455     1.31347009047818     1.31347009047818
O     1.31347009047818     3.94041027143455     1.31347009047818
O     1.31347009047818     1.31347009047818     3.94041027143455