CRYSTAL
# Primitive lattice vectors in Angstrom
PRIMVEC
 3.19245820943170 0.00000000000000 1.84316660659202
 1.06415273647723 3.00987846472509 1.84316660659202
 0.00000000000000 0.00000000000000 3.68633321318404
# Cartesian coordinates in Angstrom.
PRIMCOORD
 3 1
Sm     0.00000000000000     0.00000000000000     0.00000000000000
O     1.06415273647723     0.75246961618127     1.84316660659202
O     3.19245820943170     2.25740884854382     5.52949981977607