CRYSTAL
# Primitive lattice vectors in Angstrom
PRIMVEC
 2.90049962716572 0.00000000000000 1.67460424052853
 0.96683320905524 2.73461727359724 1.67460424052853
 0.00000000000000 0.00000000000000 3.34920848105707
# Cartesian coordinates in Angstrom.
PRIMCOORD
 2 1
Sm     0.00000000000000     0.00000000000000     0.00000000000000
O     1.93366641811048     1.36730863679862     3.34920848105707