CRYSTAL
# Primitive lattice vectors in Angstrom
PRIMVEC
 5.22010955705976 0.00000000000000 0.00000000000000
 -0.00000000000000 5.22010955705976 0.00000000000000
 0.00000000000000 0.00000000000000 5.22010955705976
# Cartesian coordinates in Angstrom.
PRIMCOORD
 14 1
Sn     0.00000000000000     0.00000000000000     0.00000000000000
Sn     2.61005477852988     2.61005477852988     0.00000000000000
Sn     2.61005477852988     0.00000000000000     2.61005477852988
Sn     0.00000000000000     2.61005477852988     2.61005477852988
O     2.61005477852988     0.00000000000000     0.00000000000000
O     0.00000000000000     2.61005477852988     0.00000000000000
O     0.00000000000000     0.00000000000000     2.61005477852988
O     2.61005477852988     2.61005477852988     2.61005477852988
O     3.91508216779482     3.91508216779482     1.30502738926494
O     3.91508216779482     1.30502738926494     3.91508216779482
O     1.30502738926494     3.91508216779482     3.91508216779482
O     3.91508216779482     1.30502738926494     1.30502738926494
O     1.30502738926494     3.91508216779482     1.30502738926494
O     1.30502738926494     1.30502738926494     3.91508216779482