CRYSTAL
# Primitive lattice vectors in Angstrom
PRIMVEC
 3.77098365715607 0.00000000000000 2.17717842956874
 1.25699455238535 3.55531748762494 2.17717842956874
 0.00000000000000 0.00000000000000 4.35435685913748
# Cartesian coordinates in Angstrom.
PRIMCOORD
 3 1
Sn     1.25699455238535     0.88882937190623     2.17717842956874
Sn     3.77098365715607     2.66648811571871     6.53153528870622
O     0.00000000000000     0.00000000000000     0.00000000000000