CRYSTAL
# Primitive lattice vectors in Angstrom
PRIMVEC
 3.08633188595922 0.00000000000000 1.78189454516708
 1.02877729531974 2.90982160740538 1.78189454516708
 0.00000000000000 0.00000000000000 3.56378909033416
# Cartesian coordinates in Angstrom.
PRIMCOORD
 3 1
Sn     0.00000000000000     0.00000000000000     0.00000000000000
O     1.02877729531974     0.72745540185135     1.78189454516708
O     3.08633188595922     2.18236620555404     5.34568363550125