CRYSTAL
# Primitive lattice vectors in Angstrom
PRIMVEC
 3.05740820453357 0.00000000000000 1.76519544991003
 1.01913606817786 2.88255209904144 1.76519544991003
 0.00000000000000 0.00000000000000 3.53039089982005
# Cartesian coordinates in Angstrom.
PRIMCOORD
 2 1
Sn     0.00000000000000     0.00000000000000     0.00000000000000
O     2.03827213635572     1.44127604952071     3.53039089982005