CRYSTAL
# Primitive lattice vectors in Angstrom
PRIMVEC
 3.99772400984860 0.00000000000000 0.00000000000000
 -0.00000000000000 3.99772400984860 0.00000000000000
 0.00000000000000 0.00000000000000 3.99772400984860
# Cartesian coordinates in Angstrom.
PRIMCOORD
 4 1
Sn     0.00000000000000     0.00000000000000     0.00000000000000
O     1.99886200492430     0.00000000000000     0.00000000000000
O     0.00000000000000     1.99886200492430     0.00000000000000
O     0.00000000000000     0.00000000000000     1.99886200492430