CRYSTAL
# Primitive lattice vectors in Angstrom
PRIMVEC
 5.13033136595629 0.00000000000000 0.00000000000000
 -0.00000000000000 5.13033136595629 0.00000000000000
 0.00000000000000 0.00000000000000 5.13033136595629
# Cartesian coordinates in Angstrom.
PRIMCOORD
 10 1
Sn     1.28258284148907     1.28258284148907     1.28258284148907
Sn     3.84774852446722     3.84774852446722     1.28258284148907
Sn     3.84774852446722     1.28258284148907     3.84774852446722
Sn     1.28258284148907     3.84774852446722     3.84774852446722
O     2.56516568297815     0.00000000000000     0.00000000000000
O     0.00000000000000     2.56516568297815     0.00000000000000
O     0.00000000000000     0.00000000000000     2.56516568297815
O     2.56516568297815     2.56516568297815     0.00000000000000
O     2.56516568297815     0.00000000000000     2.56516568297815
O     0.00000000000000     2.56516568297815     2.56516568297815