CRYSTAL
# Primitive lattice vectors in Angstrom
PRIMVEC
 3.48756077831824 0.00000000000000 2.01354415417721
 1.16252025943941 3.28810383486542 2.01354415417721
 0.00000000000000 0.00000000000000 4.02708830835443
# Cartesian coordinates in Angstrom.
PRIMCOORD
 3 1
Sr     0.00000000000000     0.00000000000000     0.00000000000000
O     1.16252025943941     0.82202595871635     2.01354415417721
O     3.48756077831824     2.46607787614906     6.04063246253165