CRYSTAL
# Primitive lattice vectors in Angstrom
PRIMVEC
 5.63508675444883 0.00000000000000 0.00000000000000
 -0.00000000000000 5.63508675444883 0.00000000000000
 0.00000000000000 0.00000000000000 5.63508675444883
# Cartesian coordinates in Angstrom.
PRIMCOORD
 10 1
Sr     1.40877168861220     1.40877168861220     1.40877168861220
Sr     4.22631506583662     4.22631506583662     1.40877168861220
Sr     4.22631506583662     1.40877168861220     4.22631506583662
Sr     1.40877168861220     4.22631506583662     4.22631506583662
O     2.81754337722442     0.00000000000000     0.00000000000000
O     0.00000000000000     2.81754337722442     0.00000000000000
O     0.00000000000000     0.00000000000000     2.81754337722442
O     2.81754337722442     2.81754337722442     0.00000000000000
O     2.81754337722442     0.00000000000000     2.81754337722442
O     0.00000000000000     2.81754337722442     2.81754337722442