CRYSTAL
# Primitive lattice vectors in Angstrom
PRIMVEC
 4.56764680352856 0.00000000000000 0.00000000000000
 -0.00000000000000 4.56764680352856 0.00000000000000
 0.00000000000000 0.00000000000000 4.56764680352856
# Cartesian coordinates in Angstrom.
PRIMCOORD
 4 1
Sr     0.00000000000000     0.00000000000000     0.00000000000000
O     2.28382340176428     0.00000000000000     0.00000000000000
O     0.00000000000000     2.28382340176428     0.00000000000000
O     0.00000000000000     0.00000000000000     2.28382340176428