CRYSTAL
# Primitive lattice vectors in Angstrom
PRIMVEC
 3.10143953635516 0.00000000000000 1.79061695119000
 1.03381317878505 2.92406523679573 1.79061695119000
 0.00000000000000 0.00000000000000 3.58123390238000
# Cartesian coordinates in Angstrom.
PRIMCOORD
 2 1
Sr     0.00000000000000     0.00000000000000     0.00000000000000
O     2.06762635757011     1.46203261839786     3.58123390238000