CRYSTAL
# Primitive lattice vectors in Angstrom
PRIMVEC
 5.59963117371241 0.00000000000000 0.00000000000000
 -0.00000000000000 5.59963117371241 0.00000000000000
 0.00000000000000 0.00000000000000 5.59963117371241
# Cartesian coordinates in Angstrom.
PRIMCOORD
 14 1
Sr     0.00000000000000     0.00000000000000     0.00000000000000
Sr     2.79981558685620     2.79981558685620     0.00000000000000
Sr     2.79981558685620     0.00000000000000     2.79981558685620
Sr     0.00000000000000     2.79981558685620     2.79981558685620
O     2.79981558685620     0.00000000000000     0.00000000000000
O     0.00000000000000     2.79981558685620     0.00000000000000
O     0.00000000000000     0.00000000000000     2.79981558685620
O     2.79981558685620     2.79981558685620     2.79981558685620
O     4.19972338028430     4.19972338028430     1.39990779342810
O     4.19972338028430     1.39990779342810     4.19972338028430
O     1.39990779342810     4.19972338028430     4.19972338028430
O     4.19972338028430     1.39990779342810     1.39990779342810
O     1.39990779342810     4.19972338028430     1.39990779342810
O     1.39990779342810     1.39990779342810     4.19972338028430