CRYSTAL
# Primitive lattice vectors in Angstrom
PRIMVEC
 3.84660427583771 0.00000000000000 2.22083801412087
 1.28220142527923 3.62661329064802 2.22083801412087
 0.00000000000000 0.00000000000000 4.44167602824174
# Cartesian coordinates in Angstrom.
PRIMCOORD
 3 1
Sr     1.28220142527923     0.90665332266200     2.22083801412087
Sr     3.84660427583771     2.71995996798602     6.66251404236261
O     0.00000000000000     0.00000000000000     0.00000000000000