CRYSTAL
# Primitive lattice vectors in Angstrom
PRIMVEC
 4.84355437835204 0.00000000000000 0.00000000000000
 -0.00000000000000 4.84355437835204 0.00000000000000
 0.00000000000000 0.00000000000000 4.84355437835204
# Cartesian coordinates in Angstrom.
PRIMCOORD
 10 1
Ta     1.21088859458801     1.21088859458801     1.21088859458801
Ta     3.63266578376403     3.63266578376403     1.21088859458801
Ta     3.63266578376403     1.21088859458801     3.63266578376403
Ta     1.21088859458801     3.63266578376403     3.63266578376403
O     2.42177718917602     0.00000000000000     0.00000000000000
O     0.00000000000000     2.42177718917602     0.00000000000000
O     0.00000000000000     0.00000000000000     2.42177718917602
O     2.42177718917602     2.42177718917602     0.00000000000000
O     2.42177718917602     0.00000000000000     2.42177718917602
O     0.00000000000000     2.42177718917602     2.42177718917602