CRYSTAL
# Primitive lattice vectors in Angstrom
PRIMVEC
 2.69728173865862 0.00000000000000 1.55727633789482
 0.89909391288621 2.54302161090154 1.55727633789482
 0.00000000000000 0.00000000000000 3.11455267578963
# Cartesian coordinates in Angstrom.
PRIMCOORD
 2 1
Ta     0.00000000000000     0.00000000000000     0.00000000000000
O     1.79818782577242     1.27151080545076     3.11455267578963