CRYSTAL
# Primitive lattice vectors in Angstrom
PRIMVEC
 3.01063991292139 0.00000000000000 1.73819376415819
 1.00354663764046 2.83845853085012 1.73819376415819
 0.00000000000000 0.00000000000000 3.47638752831638
# Cartesian coordinates in Angstrom.
PRIMCOORD
 3 1
Ta     0.00000000000000     0.00000000000000     0.00000000000000
O     1.00354663764046     0.70961463271253     1.73819376415819
O     3.01063991292139     2.12884389813759     5.21458129247458