CRYSTAL
# Primitive lattice vectors in Angstrom
PRIMVEC
 4.98678676329153 0.00000000000000 0.00000000000000
 -0.00000000000000 4.98678676329153 0.00000000000000
 0.00000000000000 0.00000000000000 4.98678676329153
# Cartesian coordinates in Angstrom.
PRIMCOORD
 14 1
Ta     0.00000000000000     0.00000000000000     0.00000000000000
Ta     2.49339338164576     2.49339338164576     0.00000000000000
Ta     2.49339338164576     0.00000000000000     2.49339338164576
Ta     0.00000000000000     2.49339338164576     2.49339338164576
O     2.49339338164576     0.00000000000000     0.00000000000000
O     0.00000000000000     2.49339338164576     0.00000000000000
O     0.00000000000000     0.00000000000000     2.49339338164576
O     2.49339338164576     2.49339338164576     2.49339338164576
O     3.74009007246865     3.74009007246865     1.24669669082288
O     3.74009007246865     1.24669669082288     3.74009007246865
O     1.24669669082288     3.74009007246865     3.74009007246865
O     3.74009007246865     1.24669669082288     1.24669669082288
O     1.24669669082288     3.74009007246865     1.24669669082288
O     1.24669669082288     1.24669669082288     3.74009007246865