CRYSTAL
# Primitive lattice vectors in Angstrom
PRIMVEC
 3.37976681477361 0.00000000000000 1.95130928030771
 1.12658893825787 3.18647471140757 1.95130928030771
 0.00000000000000 0.00000000000000 3.90261856061542
# Cartesian coordinates in Angstrom.
PRIMCOORD
 3 1
Ta     1.12658893825787     0.79661867785189     1.95130928030771
Ta     3.37976681477361     2.38985603355568     5.85392784092312
O     0.00000000000000     0.00000000000000     0.00000000000000