CRYSTAL
# Primitive lattice vectors in Angstrom
PRIMVEC
 2.87507199029154 0.00000000000000 1.65992358753437
 0.95835733009718 2.71064386764620 1.65992358753437
 0.00000000000000 0.00000000000000 3.31984717506874
# Cartesian coordinates in Angstrom.
PRIMCOORD
 2 1
Tb     0.00000000000000     0.00000000000000     0.00000000000000
O     1.91671466019436     1.35532193382309     3.31984717506874