CRYSTAL
# Primitive lattice vectors in Angstrom
PRIMVEC
 3.16038897558816 0.00000000000000 1.82465142579975
 1.05346299186272 2.97964330110079 1.82465142579975
 0.00000000000000 0.00000000000000 3.64930285159949
# Cartesian coordinates in Angstrom.
PRIMCOORD
 3 1
Tb     0.00000000000000     0.00000000000000     0.00000000000000
O     1.05346299186272     0.74491082527520     1.82465142579975
O     3.16038897558816     2.23473247582560     5.47395427739925