CRYSTAL
# Primitive lattice vectors in Angstrom
PRIMVEC
 5.16434875681655 0.00000000000000 0.00000000000000
 -0.00000000000000 5.16434875681655 0.00000000000000
 0.00000000000000 0.00000000000000 5.16434875681655
# Cartesian coordinates in Angstrom.
PRIMCOORD
 10 1
Tb     1.29108718920414     1.29108718920414     1.29108718920414
Tb     3.87326156761242     3.87326156761242     1.29108718920414
Tb     3.87326156761242     1.29108718920414     3.87326156761242
Tb     1.29108718920414     3.87326156761242     3.87326156761242
O     2.58217437840828     0.00000000000000     0.00000000000000
O     0.00000000000000     2.58217437840828     0.00000000000000
O     0.00000000000000     0.00000000000000     2.58217437840828
O     2.58217437840828     2.58217437840828     0.00000000000000
O     2.58217437840828     0.00000000000000     2.58217437840828
O     0.00000000000000     2.58217437840828     2.58217437840828