CRYSTAL
# Primitive lattice vectors in Angstrom
PRIMVEC
 3.45455167147145 0.00000000000000 1.99448633745352
 1.15151722382381 3.25698255047571 1.99448633745352
 0.00000000000000 0.00000000000000 3.98897267490703
# Cartesian coordinates in Angstrom.
PRIMCOORD
 3 1
Tb     1.15151722382381     0.81424563761893     1.99448633745352
Tb     3.45455167147145     2.44273691285679     5.98345901236055
O     0.00000000000000     0.00000000000000     0.00000000000000