CRYSTAL
# Primitive lattice vectors in Angstrom
PRIMVEC
 5.22726759721377 0.00000000000000 0.00000000000000
 -0.00000000000000 5.22726759721377 0.00000000000000
 0.00000000000000 0.00000000000000 5.22726759721377
# Cartesian coordinates in Angstrom.
PRIMCOORD
 14 1
Tb     0.00000000000000     0.00000000000000     0.00000000000000
Tb     2.61363379860688     2.61363379860688     0.00000000000000
Tb     2.61363379860688     0.00000000000000     2.61363379860688
Tb     0.00000000000000     2.61363379860688     2.61363379860688
O     2.61363379860688     0.00000000000000     0.00000000000000
O     0.00000000000000     2.61363379860688     0.00000000000000
O     0.00000000000000     0.00000000000000     2.61363379860688
O     2.61363379860688     2.61363379860688     2.61363379860688
O     3.92045069791032     3.92045069791032     1.30681689930344
O     3.92045069791032     1.30681689930344     3.92045069791032
O     1.30681689930344     3.92045069791032     3.92045069791032
O     3.92045069791032     1.30681689930344     1.30681689930344
O     1.30681689930344     3.92045069791032     1.30681689930344
O     1.30681689930344     1.30681689930344     3.92045069791032