CRYSTAL
# Primitive lattice vectors in Angstrom
PRIMVEC
 4.03679859689199 0.00000000000000 0.00000000000000
 -0.00000000000000 4.03679859689199 0.00000000000000
 0.00000000000000 0.00000000000000 4.03679859689199
# Cartesian coordinates in Angstrom.
PRIMCOORD
 4 1
Tb     0.00000000000000     0.00000000000000     0.00000000000000
O     2.01839929844599     0.00000000000000     0.00000000000000
O     0.00000000000000     2.01839929844599     0.00000000000000
O     0.00000000000000     0.00000000000000     2.01839929844599