CRYSTAL
# Primitive lattice vectors in Angstrom
PRIMVEC
 4.88672207798114 0.00000000000000 0.00000000000000
 -0.00000000000000 4.88672207798114 0.00000000000000
 0.00000000000000 0.00000000000000 4.88672207798114
# Cartesian coordinates in Angstrom.
PRIMCOORD
 14 1
Tc     0.00000000000000     0.00000000000000     0.00000000000000
Tc     2.44336103899057     2.44336103899057     0.00000000000000
Tc     2.44336103899057     0.00000000000000     2.44336103899057
Tc     0.00000000000000     2.44336103899057     2.44336103899057
O     2.44336103899057     0.00000000000000     0.00000000000000
O     0.00000000000000     2.44336103899057     0.00000000000000
O     0.00000000000000     0.00000000000000     2.44336103899057
O     2.44336103899057     2.44336103899057     2.44336103899057
O     3.66504155848586     3.66504155848586     1.22168051949529
O     3.66504155848586     1.22168051949529     3.66504155848586
O     1.22168051949529     3.66504155848586     3.66504155848586
O     3.66504155848586     1.22168051949529     1.22168051949529
O     1.22168051949529     3.66504155848586     1.22168051949529
O     1.22168051949529     1.22168051949529     3.66504155848586