CRYSTAL
# Primitive lattice vectors in Angstrom
PRIMVEC
 4.68733792170947 0.00000000000000 0.00000000000000
 -0.00000000000000 4.68733792170947 0.00000000000000
 0.00000000000000 0.00000000000000 4.68733792170947
# Cartesian coordinates in Angstrom.
PRIMCOORD
 10 1
Tc     1.17183448042736     1.17183448042736     1.17183448042736
Tc     3.51550344128210     3.51550344128210     1.17183448042736
Tc     3.51550344128210     1.17183448042736     3.51550344128210
Tc     1.17183448042736     3.51550344128210     3.51550344128210
O     2.34366896085474     0.00000000000000     0.00000000000000
O     0.00000000000000     2.34366896085474     0.00000000000000
O     0.00000000000000     0.00000000000000     2.34366896085474
O     2.34366896085474     2.34366896085474     0.00000000000000
O     2.34366896085474     0.00000000000000     2.34366896085474
O     0.00000000000000     2.34366896085474     2.34366896085474