CRYSTAL
# Primitive lattice vectors in Angstrom
PRIMVEC
 2.91954373745402 0.00000000000000 1.68559936272997
 0.97318124581801 2.75257223296595 1.68559936272997
 0.00000000000000 0.00000000000000 3.37119872545993
# Cartesian coordinates in Angstrom.
PRIMCOORD
 3 1
Tc     0.00000000000000     0.00000000000000     0.00000000000000
O     0.97318124581801     0.68814305824149     1.68559936272997
O     2.91954373745402     2.06442917472446     5.05679808818990