CRYSTAL
# Primitive lattice vectors in Angstrom
PRIMVEC
 3.20914526502709 0.00000000000000 1.85280088263201
 1.06971508834236 3.02561117161781 1.85280088263201
 0.00000000000000 0.00000000000000 3.70560176526401
# Cartesian coordinates in Angstrom.
PRIMCOORD
 3 1
Tc     1.06971508834236     0.75640279290445     1.85280088263201
Tc     3.20914526502709     2.26920837871336     5.55840264789602
O     0.00000000000000     0.00000000000000     0.00000000000000