CRYSTAL
# Primitive lattice vectors in Angstrom
PRIMVEC
 3.70339582648671 0.00000000000000 0.00000000000000
 -0.00000000000000 3.70339582648671 0.00000000000000
 0.00000000000000 0.00000000000000 3.70339582648671
# Cartesian coordinates in Angstrom.
PRIMCOORD
 4 1
Tc     0.00000000000000     0.00000000000000     0.00000000000000
O     1.85169791324335     0.00000000000000     0.00000000000000
O     0.00000000000000     1.85169791324335     0.00000000000000
O     0.00000000000000     0.00000000000000     1.85169791324335