CRYSTAL
# Primitive lattice vectors in Angstrom
PRIMVEC
 2.63075363141883 0.00000000000000 1.51886631727125
 0.87691787713961 2.48029830987652 1.51886631727125
 0.00000000000000 0.00000000000000 3.03773263454249
# Cartesian coordinates in Angstrom.
PRIMCOORD
 2 1
Tc     0.00000000000000     0.00000000000000     0.00000000000000
O     1.75383575427922     1.24014915493826     3.03773263454249