CRYSTAL
# Primitive lattice vectors in Angstrom
PRIMVEC
 3.10922360092612 0.00000000000000 1.79511108296543
 1.03640786697537 2.93140412325348 1.79511108296543
 0.00000000000000 0.00000000000000 3.59022216593086
# Cartesian coordinates in Angstrom.
PRIMCOORD
 2 1
Te     0.00000000000000     0.00000000000000     0.00000000000000
O     2.07281573395074     1.46570206162674     3.59022216593086