CRYSTAL
# Primitive lattice vectors in Angstrom
PRIMVEC
 5.28829636036339 0.00000000000000 0.00000000000000
 -0.00000000000000 5.28829636036339 0.00000000000000
 0.00000000000000 0.00000000000000 5.28829636036339
# Cartesian coordinates in Angstrom.
PRIMCOORD
 10 1
Te     1.32207409009084     1.32207409009084     1.32207409009084
Te     3.96622227027254     3.96622227027254     1.32207409009084
Te     3.96622227027254     1.32207409009084     3.96622227027254
Te     1.32207409009084     3.96622227027254     3.96622227027254
O     2.64414818018170     0.00000000000000     0.00000000000000
O     0.00000000000000     2.64414818018170     0.00000000000000
O     0.00000000000000     0.00000000000000     2.64414818018170
O     2.64414818018170     2.64414818018170     0.00000000000000
O     2.64414818018170     0.00000000000000     2.64414818018170
O     0.00000000000000     2.64414818018170     2.64414818018170