CRYSTAL
# Primitive lattice vectors in Angstrom
PRIMVEC
 5.29571200105436 0.00000000000000 0.00000000000000
 -0.00000000000000 5.29571200105436 0.00000000000000
 0.00000000000000 0.00000000000000 5.29571200105436
# Cartesian coordinates in Angstrom.
PRIMCOORD
 14 1
Te     0.00000000000000     0.00000000000000     0.00000000000000
Te     2.64785600052718     2.64785600052718     0.00000000000000
Te     2.64785600052718     0.00000000000000     2.64785600052718
Te     0.00000000000000     2.64785600052718     2.64785600052718
O     2.64785600052718     0.00000000000000     0.00000000000000
O     0.00000000000000     2.64785600052718     0.00000000000000
O     0.00000000000000     0.00000000000000     2.64785600052718
O     2.64785600052718     2.64785600052718     2.64785600052718
O     3.97178400079077     3.97178400079077     1.32392800026359
O     3.97178400079077     1.32392800026359     3.97178400079077
O     1.32392800026359     3.97178400079077     3.97178400079077
O     3.97178400079077     1.32392800026359     1.32392800026359
O     1.32392800026359     3.97178400079077     1.32392800026359
O     1.32392800026359     1.32392800026359     3.97178400079077