CRYSTAL
# Primitive lattice vectors in Angstrom
PRIMVEC
 3.23470705697973 0.00000000000000 1.86755899009683
 1.07823568565991 3.04971106018980 1.86755899009683
 0.00000000000000 0.00000000000000 3.73511798019366
# Cartesian coordinates in Angstrom.
PRIMCOORD
 3 1
Te     0.00000000000000     0.00000000000000     0.00000000000000
O     1.07823568565991     0.76242776504745     1.86755899009683
O     3.23470705697973     2.28728329514235     5.60267697029049