CRYSTAL
# Primitive lattice vectors in Angstrom
PRIMVEC
 3.77294276338417 0.00000000000000 2.17830952007690
 1.25764758779472 3.55716455069021 2.17830952007690
 0.00000000000000 0.00000000000000 4.35661904015380
# Cartesian coordinates in Angstrom.
PRIMCOORD
 3 1
Te     1.25764758779472     0.88929113767255     2.17830952007690
Te     3.77294276338417     2.66787341301766     6.53492856023070
O     0.00000000000000     0.00000000000000     0.00000000000000