CRYSTAL
# Primitive lattice vectors in Angstrom
PRIMVEC
 3.77240574536766 0.00000000000000 0.00000000000000
 -0.00000000000000 3.77240574536766 0.00000000000000
 0.00000000000000 0.00000000000000 3.77240574536766
# Cartesian coordinates in Angstrom.
PRIMCOORD
 4 1
Te     0.00000000000000     0.00000000000000     0.00000000000000
O     1.88620287268382     0.00000000000000     0.00000000000000
O     0.00000000000000     1.88620287268382     0.00000000000000
O     0.00000000000000     0.00000000000000     1.88620287268382