CRYSTAL
# Primitive lattice vectors in Angstrom
PRIMVEC
 3.87247796076748 0.00000000000000 2.23577619308000
 1.29082598692249 3.65100723473885 2.23577619308000
 0.00000000000000 0.00000000000000 4.47155238616000
# Cartesian coordinates in Angstrom.
PRIMCOORD
 3 1
Th     1.29082598692249     0.91275180868471     2.23577619308000
Th     3.87247796076748     2.73825542605414     6.70732857924000
O     0.00000000000000     0.00000000000000     0.00000000000000