CRYSTAL
# Primitive lattice vectors in Angstrom
PRIMVEC
 3.38290726386754 0.00000000000000 1.95312241943746
 1.12763575462251 3.18943555520796 1.95312241943746
 0.00000000000000 0.00000000000000 3.90624483887493
# Cartesian coordinates in Angstrom.
PRIMCOORD
 3 1
Th     0.00000000000000     0.00000000000000     0.00000000000000
O     1.12763575462251     0.79735888880199     1.95312241943746
O     3.38290726386754     2.39207666640597     5.85936725831240