CRYSTAL
# Primitive lattice vectors in Angstrom
PRIMVEC
 3.06481394768010 0.00000000000000 1.76947115770922
 1.02160464922670 2.88953430063961 1.76947115770922
 0.00000000000000 0.00000000000000 3.53894231541844
# Cartesian coordinates in Angstrom.
PRIMCOORD
 2 1
Th     0.00000000000000     0.00000000000000     0.00000000000000
O     2.04320929845340     1.44476715031980     3.53894231541844