CRYSTAL
# Primitive lattice vectors in Angstrom
PRIMVEC
 5.49543806175394 0.00000000000000 0.00000000000000
 -0.00000000000000 5.49543806175394 0.00000000000000
 0.00000000000000 0.00000000000000 5.49543806175394
# Cartesian coordinates in Angstrom.
PRIMCOORD
 10 1
Th     1.37385951543848     1.37385951543848     1.37385951543848
Th     4.12157854631546     4.12157854631546     1.37385951543848
Th     4.12157854631546     1.37385951543848     4.12157854631546
Th     1.37385951543848     4.12157854631546     4.12157854631546
O     2.74771903087698     0.00000000000000     0.00000000000000
O     0.00000000000000     2.74771903087698     0.00000000000000
O     0.00000000000000     0.00000000000000     2.74771903087698
O     2.74771903087698     2.74771903087698     0.00000000000000
O     2.74771903087698     0.00000000000000     2.74771903087698
O     0.00000000000000     2.74771903087698     2.74771903087698