CRYSTAL
# Primitive lattice vectors in Angstrom
PRIMVEC
 5.51431029628496 0.00000000000000 0.00000000000000
 -0.00000000000000 5.51431029628496 0.00000000000000
 0.00000000000000 0.00000000000000 5.51431029628496
# Cartesian coordinates in Angstrom.
PRIMCOORD
 14 1
Th     0.00000000000000     0.00000000000000     0.00000000000000
Th     2.75715514814248     2.75715514814248     0.00000000000000
Th     2.75715514814248     0.00000000000000     2.75715514814248
Th     0.00000000000000     2.75715514814248     2.75715514814248
O     2.75715514814248     0.00000000000000     0.00000000000000
O     0.00000000000000     2.75715514814248     0.00000000000000
O     0.00000000000000     0.00000000000000     2.75715514814248
O     2.75715514814248     2.75715514814248     2.75715514814248
O     4.13573272221372     4.13573272221372     1.37857757407124
O     4.13573272221372     1.37857757407124     4.13573272221372
O     1.37857757407124     4.13573272221372     4.13573272221372
O     4.13573272221372     1.37857757407124     1.37857757407124
O     1.37857757407124     4.13573272221372     1.37857757407124
O     1.37857757407124     1.37857757407124     4.13573272221372