CRYSTAL
# Primitive lattice vectors in Angstrom
PRIMVEC
 4.28404349381443 0.00000000000000 0.00000000000000
 -0.00000000000000 4.28404349381443 0.00000000000000
 0.00000000000000 0.00000000000000 4.28404349381443
# Cartesian coordinates in Angstrom.
PRIMCOORD
 4 1
Th     0.00000000000000     0.00000000000000     0.00000000000000
O     2.14202174690721     0.00000000000000     0.00000000000000
O     0.00000000000000     2.14202174690721     0.00000000000000
O     0.00000000000000     0.00000000000000     2.14202174690721