CRYSTAL
# Primitive lattice vectors in Angstrom
PRIMVEC
 4.67381917095593 0.00000000000000 0.00000000000000
 -0.00000000000000 4.67381917095593 0.00000000000000
 0.00000000000000 0.00000000000000 4.67381917095593
# Cartesian coordinates in Angstrom.
PRIMCOORD
 10 1
Ti     1.16845479273898     1.16845479273898     1.16845479273898
Ti     3.50536437821695     3.50536437821695     1.16845479273898
Ti     3.50536437821695     1.16845479273898     3.50536437821695
Ti     1.16845479273898     3.50536437821695     3.50536437821695
O     2.33690958547797     0.00000000000000     0.00000000000000
O     0.00000000000000     2.33690958547797     0.00000000000000
O     0.00000000000000     0.00000000000000     2.33690958547797
O     2.33690958547797     2.33690958547797     0.00000000000000
O     2.33690958547797     0.00000000000000     2.33690958547797
O     0.00000000000000     2.33690958547797     2.33690958547797