CRYSTAL
# Primitive lattice vectors in Angstrom
PRIMVEC
 4.91692207054511 0.00000000000000 0.00000000000000
 -0.00000000000000 4.91692207054511 0.00000000000000
 0.00000000000000 0.00000000000000 4.91692207054511
# Cartesian coordinates in Angstrom.
PRIMCOORD
 14 1
Ti     0.00000000000000     0.00000000000000     0.00000000000000
Ti     2.45846103527255     2.45846103527255     0.00000000000000
Ti     2.45846103527255     0.00000000000000     2.45846103527255
Ti     0.00000000000000     2.45846103527255     2.45846103527255
O     2.45846103527255     0.00000000000000     0.00000000000000
O     0.00000000000000     2.45846103527255     0.00000000000000
O     0.00000000000000     0.00000000000000     2.45846103527255
O     2.45846103527255     2.45846103527255     2.45846103527255
O     3.68769155290883     3.68769155290883     1.22923051763628
O     3.68769155290883     1.22923051763628     3.68769155290883
O     1.22923051763628     3.68769155290883     3.68769155290883
O     3.68769155290883     1.22923051763628     1.22923051763628
O     1.22923051763628     3.68769155290883     1.22923051763628
O     1.22923051763628     1.22923051763628     3.68769155290883