CRYSTAL
# Primitive lattice vectors in Angstrom
PRIMVEC
 2.90015169247028 0.00000000000000 1.67440336033846
 0.96671723082342 2.73428923762051 1.67440336033846
 0.00000000000000 0.00000000000000 3.34880672067693
# Cartesian coordinates in Angstrom.
PRIMCOORD
 3 1
Ti     0.00000000000000     0.00000000000000     0.00000000000000
O     0.96671723082342     0.68357230940513     1.67440336033846
O     2.90015169247028     2.05071692821538     5.02321008101540