CRYSTAL
# Primitive lattice vectors in Angstrom
PRIMVEC
 2.56116519486873 0.00000000000000 1.47868941469656
 0.85372173162291 2.41468970270752 1.47868941469656
 0.00000000000000 0.00000000000000 2.95737882939311
# Cartesian coordinates in Angstrom.
PRIMCOORD
 2 1
Ti     0.00000000000000     0.00000000000000     0.00000000000000
O     1.70744346324582     1.20734485135376     2.95737882939311