CRYSTAL
# Primitive lattice vectors in Angstrom
PRIMVEC
 3.12981106836667 0.00000000000000 1.80699726283417
 1.04327035612222 2.95081417369972 1.80699726283417
 0.00000000000000 0.00000000000000 3.61399452566834
# Cartesian coordinates in Angstrom.
PRIMCOORD
 3 1
Ti     1.04327035612222     0.73770354342493     1.80699726283417
Ti     3.12981106836667     2.21311063027479     5.42099178850251
O     0.00000000000000     0.00000000000000     0.00000000000000