CRYSTAL
# Primitive lattice vectors in Angstrom
PRIMVEC
 3.78542909634969 0.00000000000000 0.00000000000000
 -0.00000000000000 3.78542909634969 0.00000000000000
 0.00000000000000 0.00000000000000 3.78542909634969
# Cartesian coordinates in Angstrom.
PRIMCOORD
 4 1
Ti     0.00000000000000     0.00000000000000     0.00000000000000
O     1.89271454817484     0.00000000000000     0.00000000000000
O     0.00000000000000     1.89271454817484     0.00000000000000
O     0.00000000000000     0.00000000000000     1.89271454817484