CRYSTAL
# Primitive lattice vectors in Angstrom
PRIMVEC
 3.05054435245920 0.00000000000000 1.76123260306721
 1.01684811748640 2.87608079724564 1.76123260306721
 0.00000000000000 0.00000000000000 3.52246520613442
# Cartesian coordinates in Angstrom.
PRIMCOORD
 2 1
Tl     0.00000000000000     0.00000000000000     0.00000000000000
O     2.03369623497280     1.43804039862281     3.52246520613442