CRYSTAL
# Primitive lattice vectors in Angstrom
PRIMVEC
 3.87598743126049 0.00000000000000 2.23780238681385
 1.29199581042016 3.65431599525083 2.23780238681385
 0.00000000000000 0.00000000000000 4.47560477362770
# Cartesian coordinates in Angstrom.
PRIMCOORD
 3 1
Tl     1.29199581042016     0.91357899881270     2.23780238681385
Tl     3.87598743126049     2.74073699643812     6.71340716044156
O     0.00000000000000     0.00000000000000     0.00000000000000