CRYSTAL
# Primitive lattice vectors in Angstrom
PRIMVEC
 3.25214575460440 0.00000000000000 1.87762722686475
 1.08404858486813 3.06615242198376 1.87762722686475
 0.00000000000000 0.00000000000000 3.75525445372950
# Cartesian coordinates in Angstrom.
PRIMCOORD
 3 1
Tl     0.00000000000000     0.00000000000000     0.00000000000000
O     1.08404858486813     0.76653810549594     1.87762722686475
O     3.25214575460440     2.29961431648782     5.63288168059426