CRYSTAL
# Primitive lattice vectors in Angstrom
PRIMVEC
 5.27576760644051 0.00000000000000 0.00000000000000
 -0.00000000000000 5.27576760644051 0.00000000000000
 0.00000000000000 0.00000000000000 5.27576760644051
# Cartesian coordinates in Angstrom.
PRIMCOORD
 10 1
Tl     1.31894190161013     1.31894190161013     1.31894190161013
Tl     3.95682570483039     3.95682570483039     1.31894190161013
Tl     3.95682570483039     1.31894190161013     3.95682570483039
Tl     1.31894190161013     3.95682570483039     3.95682570483039
O     2.63788380322026     0.00000000000000     0.00000000000000
O     0.00000000000000     2.63788380322026     0.00000000000000
O     0.00000000000000     0.00000000000000     2.63788380322026
O     2.63788380322026     2.63788380322026     0.00000000000000
O     2.63788380322026     0.00000000000000     2.63788380322026
O     0.00000000000000     2.63788380322026     2.63788380322026