CRYSTAL
# Primitive lattice vectors in Angstrom
PRIMVEC
 4.15311139373312 0.00000000000000 0.00000000000000
 -0.00000000000000 4.15311139373312 0.00000000000000
 0.00000000000000 0.00000000000000 4.15311139373312
# Cartesian coordinates in Angstrom.
PRIMCOORD
 4 1
Tl     0.00000000000000     0.00000000000000     0.00000000000000
O     2.07655569686656     0.00000000000000     0.00000000000000
O     0.00000000000000     2.07655569686656     0.00000000000000
O     0.00000000000000     0.00000000000000     2.07655569686656