CRYSTAL
# Primitive lattice vectors in Angstrom
PRIMVEC
 5.38736221443659 0.00000000000000 0.00000000000000
 -0.00000000000000 5.38736221443659 0.00000000000000
 0.00000000000000 0.00000000000000 5.38736221443659
# Cartesian coordinates in Angstrom.
PRIMCOORD
 14 1
Tl     0.00000000000000     0.00000000000000     0.00000000000000
Tl     2.69368110721829     2.69368110721829     0.00000000000000
Tl     2.69368110721829     0.00000000000000     2.69368110721829
Tl     0.00000000000000     2.69368110721829     2.69368110721829
O     2.69368110721829     0.00000000000000     0.00000000000000
O     0.00000000000000     2.69368110721829     0.00000000000000
O     0.00000000000000     0.00000000000000     2.69368110721829
O     2.69368110721829     2.69368110721829     2.69368110721829
O     4.04052166082744     4.04052166082744     1.34684055360915
O     4.04052166082744     1.34684055360915     4.04052166082744
O     1.34684055360915     4.04052166082744     4.04052166082744
O     4.04052166082744     1.34684055360915     1.34684055360915
O     1.34684055360915     4.04052166082744     1.34684055360915
O     1.34684055360915     1.34684055360915     4.04052166082744