CRYSTAL
# Primitive lattice vectors in Angstrom
PRIMVEC
 3.50823328855157 0.00000000000000 2.02547943352526
 1.16941109618385 3.30759406442559 2.02547943352526
 0.00000000000000 0.00000000000000 4.05095886705051
# Cartesian coordinates in Angstrom.
PRIMCOORD
 3 1
Tm     1.16941109618385     0.82689851610640     2.02547943352526
Tm     3.50823328855157     2.48069554831920     6.07643830057577
O     0.00000000000000     0.00000000000000     0.00000000000000