CRYSTAL
# Primitive lattice vectors in Angstrom
PRIMVEC
 4.08108247148380 0.00000000000000 0.00000000000000
 -0.00000000000000 4.08108247148380 0.00000000000000
 0.00000000000000 0.00000000000000 4.08108247148380
# Cartesian coordinates in Angstrom.
PRIMCOORD
 4 1
Tm     0.00000000000000     0.00000000000000     0.00000000000000
O     2.04054123574190     0.00000000000000     0.00000000000000
O     0.00000000000000     2.04054123574190     0.00000000000000
O     0.00000000000000     0.00000000000000     2.04054123574190