CRYSTAL
# Primitive lattice vectors in Angstrom
PRIMVEC
 5.13804876971061 0.00000000000000 0.00000000000000
 -0.00000000000000 5.13804876971061 0.00000000000000
 0.00000000000000 0.00000000000000 5.13804876971061
# Cartesian coordinates in Angstrom.
PRIMCOORD
 10 1
Tm     1.28451219242765     1.28451219242765     1.28451219242765
Tm     3.85353657728296     3.85353657728296     1.28451219242765
Tm     3.85353657728296     1.28451219242765     3.85353657728296
Tm     1.28451219242765     3.85353657728296     3.85353657728296
O     2.56902438485531     0.00000000000000     0.00000000000000
O     0.00000000000000     2.56902438485531     0.00000000000000
O     0.00000000000000     0.00000000000000     2.56902438485531
O     2.56902438485531     2.56902438485531     0.00000000000000
O     2.56902438485531     0.00000000000000     2.56902438485531
O     0.00000000000000     2.56902438485531     2.56902438485531