CRYSTAL
# Primitive lattice vectors in Angstrom
PRIMVEC
 3.15343997211255 0.00000000000000 1.82063941677250
 1.05114665737085 2.97309171779400 1.82063941677250
 0.00000000000000 0.00000000000000 3.64127883354501
# Cartesian coordinates in Angstrom.
PRIMCOORD
 3 1
Tm     0.00000000000000     0.00000000000000     0.00000000000000
O     1.05114665737085     0.74327292944850     1.82063941677250
O     3.15343997211255     2.22981878834550     5.46191825031752