CRYSTAL
# Primitive lattice vectors in Angstrom
PRIMVEC
 5.23138397714624 0.00000000000000 0.00000000000000
 -0.00000000000000 5.23138397714624 0.00000000000000
 0.00000000000000 0.00000000000000 5.23138397714624
# Cartesian coordinates in Angstrom.
PRIMCOORD
 14 1
Tm     0.00000000000000     0.00000000000000     0.00000000000000
Tm     2.61569198857312     2.61569198857312     0.00000000000000
Tm     2.61569198857312     0.00000000000000     2.61569198857312
Tm     0.00000000000000     2.61569198857312     2.61569198857312
O     2.61569198857312     0.00000000000000     0.00000000000000
O     0.00000000000000     2.61569198857312     0.00000000000000
O     0.00000000000000     0.00000000000000     2.61569198857312
O     2.61569198857312     2.61569198857312     2.61569198857312
O     3.92353798285968     3.92353798285968     1.30784599428656
O     3.92353798285968     1.30784599428656     3.92353798285968
O     1.30784599428656     3.92353798285968     3.92353798285968
O     3.92353798285968     1.30784599428656     1.30784599428656
O     1.30784599428656     3.92353798285968     1.30784599428656
O     1.30784599428656     1.30784599428656     3.92353798285968