CRYSTAL
# Primitive lattice vectors in Angstrom
PRIMVEC
 2.85654168852898 0.00000000000000 1.64922511282359
 0.95218056284299 2.69317333160122 1.64922511282359
 0.00000000000000 0.00000000000000 3.29845022564719
# Cartesian coordinates in Angstrom.
PRIMCOORD
 2 1
Tm     0.00000000000000     0.00000000000000     0.00000000000000
O     1.90436112568599     1.34658666580061     3.29845022564719