CRYSTAL
# Primitive lattice vectors in Angstrom
PRIMVEC
 5.23798054103649 0.00000000000000 0.00000000000000
 -0.00000000000000 5.23798054103649 0.00000000000000
 0.00000000000000 0.00000000000000 5.23798054103649
# Cartesian coordinates in Angstrom.
PRIMCOORD
 14 1
U     0.00000000000000     0.00000000000000     0.00000000000000
U     2.61899027051825     2.61899027051825     0.00000000000000
U     2.61899027051825     0.00000000000000     2.61899027051825
U     0.00000000000000     2.61899027051825     2.61899027051825
O     2.61899027051825     0.00000000000000     0.00000000000000
O     0.00000000000000     2.61899027051825     0.00000000000000
O     0.00000000000000     0.00000000000000     2.61899027051825
O     2.61899027051825     2.61899027051825     2.61899027051825
O     3.92848540577737     3.92848540577737     1.30949513525912
O     3.92848540577737     1.30949513525912     3.92848540577737
O     1.30949513525912     3.92848540577737     3.92848540577737
O     3.92848540577737     1.30949513525912     1.30949513525912
O     1.30949513525912     3.92848540577737     1.30949513525912
O     1.30949513525912     1.30949513525912     3.92848540577737