CRYSTAL
# Primitive lattice vectors in Angstrom
PRIMVEC
 3.50053426387899 0.00000000000000 2.02103439955805
 1.16684475462633 3.30033535435292 2.02103439955805
 0.00000000000000 0.00000000000000 4.04206879911609
# Cartesian coordinates in Angstrom.
PRIMCOORD
 3 1
U     1.16684475462633     0.82508383858823     2.02103439955805
U     3.50053426387899     2.47525151576470     6.06310319867414
O     0.00000000000000     0.00000000000000     0.00000000000000