CRYSTAL
# Primitive lattice vectors in Angstrom
PRIMVEC
 5.22108969145572 0.00000000000000 0.00000000000000
 -0.00000000000000 5.22108969145572 0.00000000000000
 0.00000000000000 0.00000000000000 5.22108969145572
# Cartesian coordinates in Angstrom.
PRIMCOORD
 10 1
U     1.30527242286393     1.30527242286393     1.30527242286393
U     3.91581726859179     3.91581726859179     1.30527242286393
U     3.91581726859179     1.30527242286393     3.91581726859179
U     1.30527242286393     3.91581726859179     3.91581726859179
O     2.61054484572787     0.00000000000000     0.00000000000000
O     0.00000000000000     2.61054484572787     0.00000000000000
O     0.00000000000000     0.00000000000000     2.61054484572787
O     2.61054484572787     2.61054484572787     0.00000000000000
O     2.61054484572787     0.00000000000000     2.61054484572787
O     0.00000000000000     2.61054484572787     2.61054484572787