CRYSTAL
# Primitive lattice vectors in Angstrom
PRIMVEC
 2.90831996018432 0.00000000000000 1.67911931190198
 0.96943998672811 2.74199035427537 1.67911931190198
 0.00000000000000 0.00000000000000 3.35823862380396
# Cartesian coordinates in Angstrom.
PRIMCOORD
 2 1
U     0.00000000000000     0.00000000000000     0.00000000000000
O     1.93887997345622     1.37099517713768     3.35823862380396