CRYSTAL
# Primitive lattice vectors in Angstrom
PRIMVEC
 3.23263910281942 0.00000000000000 1.86636505620570
 1.07754636760647 3.04776137430988 1.86636505620570
 0.00000000000000 0.00000000000000 3.73273011241140
# Cartesian coordinates in Angstrom.
PRIMCOORD
 3 1
U     0.00000000000000     0.00000000000000     0.00000000000000
O     1.07754636760647     0.76194034357747     1.86636505620570
O     3.23263910281942     2.28582103073241     5.59909516861711