CRYSTAL
# Primitive lattice vectors in Angstrom
PRIMVEC
 4.81703232305471 0.00000000000000 0.00000000000000
 -0.00000000000000 4.81703232305471 0.00000000000000
 0.00000000000000 0.00000000000000 4.81703232305471
# Cartesian coordinates in Angstrom.
PRIMCOORD
 14 1
V     0.00000000000000     0.00000000000000     0.00000000000000
V     2.40851616152735     2.40851616152735     0.00000000000000
V     2.40851616152735     0.00000000000000     2.40851616152735
V     0.00000000000000     2.40851616152735     2.40851616152735
O     2.40851616152735     0.00000000000000     0.00000000000000
O     0.00000000000000     2.40851616152735     0.00000000000000
O     0.00000000000000     0.00000000000000     2.40851616152735
O     2.40851616152735     2.40851616152735     2.40851616152735
O     3.61277424229103     3.61277424229103     1.20425808076368
O     3.61277424229103     1.20425808076368     3.61277424229103
O     1.20425808076368     3.61277424229103     3.61277424229103
O     3.61277424229103     1.20425808076368     1.20425808076368
O     1.20425808076368     3.61277424229103     1.20425808076368
O     1.20425808076368     1.20425808076368     3.61277424229103