CRYSTAL
# Primitive lattice vectors in Angstrom
PRIMVEC
 3.02422030521448 0.00000000000000 1.74603440730431
 1.00807343507149 2.85126224749227 1.74603440730431
 0.00000000000000 0.00000000000000 3.49206881460862
# Cartesian coordinates in Angstrom.
PRIMCOORD
 3 1
V     1.00807343507149     0.71281556187307     1.74603440730431
V     3.02422030521448     2.13844668561921     5.23810322191293
O     0.00000000000000     0.00000000000000     0.00000000000000