CRYSTAL
# Primitive lattice vectors in Angstrom
PRIMVEC
 4.56721132210496 0.00000000000000 0.00000000000000
 -0.00000000000000 4.56721132210496 0.00000000000000
 0.00000000000000 0.00000000000000 4.56721132210496
# Cartesian coordinates in Angstrom.
PRIMCOORD
 10 1
V     1.14180283052624     1.14180283052624     1.14180283052624
V     3.42540849157872     3.42540849157872     1.14180283052624
V     3.42540849157872     1.14180283052624     3.42540849157872
V     1.14180283052624     3.42540849157872     3.42540849157872
O     2.28360566105248     0.00000000000000     0.00000000000000
O     0.00000000000000     2.28360566105248     0.00000000000000
O     0.00000000000000     0.00000000000000     2.28360566105248
O     2.28360566105248     2.28360566105248     0.00000000000000
O     2.28360566105248     0.00000000000000     2.28360566105248
O     0.00000000000000     2.28360566105248     2.28360566105248