CRYSTAL
# Primitive lattice vectors in Angstrom
PRIMVEC
 2.50098757368256 0.00000000000000 1.44394584890553
 0.83366252456085 2.35795369735230 1.44394584890553
 0.00000000000000 0.00000000000000 2.88789169781107
# Cartesian coordinates in Angstrom.
PRIMCOORD
 2 1
V     0.00000000000000     0.00000000000000     0.00000000000000
O     1.66732504912171     1.17897684867615     2.88789169781107