CRYSTAL
# Primitive lattice vectors in Angstrom
PRIMVEC
 2.84089739219429 0.00000000000000 1.64019287412347
 0.94696579739809 2.67842374756768 1.64019287412347
 0.00000000000000 0.00000000000000 3.28038574824695
# Cartesian coordinates in Angstrom.
PRIMCOORD
 3 1
V     0.00000000000000     0.00000000000000     0.00000000000000
O     0.94696579739809     0.66960593689192     1.64019287412347
O     2.84089739219429     2.00881781067576     4.92057862237043