CRYSTAL
# Primitive lattice vectors in Angstrom
PRIMVEC
 3.30270932181093 0.00000000000000 1.90682011600263
 1.10090310727031 3.11382421032071 1.90682011600263
 0.00000000000000 0.00000000000000 3.81364023200526
# Cartesian coordinates in Angstrom.
PRIMCOORD
 3 1
W     1.10090310727031     0.77845605258018     1.90682011600263
W     3.30270932181093     2.33536815774054     5.72046034800789
O     0.00000000000000     0.00000000000000     0.00000000000000