CRYSTAL
# Primitive lattice vectors in Angstrom
PRIMVEC
 4.76692745513757 0.00000000000000 0.00000000000000
 -0.00000000000000 4.76692745513757 0.00000000000000
 0.00000000000000 0.00000000000000 4.76692745513757
# Cartesian coordinates in Angstrom.
PRIMCOORD
 10 1
W     1.19173186378439     1.19173186378439     1.19173186378439
W     3.57519559135318     3.57519559135318     1.19173186378439
W     3.57519559135318     1.19173186378439     3.57519559135318
W     1.19173186378439     3.57519559135318     3.57519559135318
O     2.38346372756879     0.00000000000000     0.00000000000000
O     0.00000000000000     2.38346372756879     0.00000000000000
O     0.00000000000000     0.00000000000000     2.38346372756879
O     2.38346372756879     2.38346372756879     0.00000000000000
O     2.38346372756879     0.00000000000000     2.38346372756879
O     0.00000000000000     2.38346372756879     2.38346372756879