CRYSTAL
# Primitive lattice vectors in Angstrom
PRIMVEC
 4.91350203823146 0.00000000000000 0.00000000000000
 -0.00000000000000 4.91350203823146 0.00000000000000
 0.00000000000000 0.00000000000000 4.91350203823146
# Cartesian coordinates in Angstrom.
PRIMCOORD
 14 1
W     0.00000000000000     0.00000000000000     0.00000000000000
W     2.45675101911573     2.45675101911573     0.00000000000000
W     2.45675101911573     0.00000000000000     2.45675101911573
W     0.00000000000000     2.45675101911573     2.45675101911573
O     2.45675101911573     0.00000000000000     0.00000000000000
O     0.00000000000000     2.45675101911573     0.00000000000000
O     0.00000000000000     0.00000000000000     2.45675101911573
O     2.45675101911573     2.45675101911573     2.45675101911573
O     3.68512652867360     3.68512652867360     1.22837550955787
O     3.68512652867360     1.22837550955787     3.68512652867360
O     1.22837550955787     3.68512652867360     3.68512652867360
O     3.68512652867360     1.22837550955787     1.22837550955787
O     1.22837550955787     3.68512652867360     1.22837550955787
O     1.22837550955787     1.22837550955787     3.68512652867360