CRYSTAL
# Primitive lattice vectors in Angstrom
PRIMVEC
 3.77721889770231 0.00000000000000 0.00000000000000
 -0.00000000000000 3.77721889770231 0.00000000000000
 0.00000000000000 0.00000000000000 3.77721889770231
# Cartesian coordinates in Angstrom.
PRIMCOORD
 4 1
W     0.00000000000000     0.00000000000000     0.00000000000000
O     1.88860944885115     0.00000000000000     0.00000000000000
O     0.00000000000000     1.88860944885115     0.00000000000000
O     0.00000000000000     0.00000000000000     1.88860944885115