CRYSTAL
# Primitive lattice vectors in Angstrom
PRIMVEC
 2.97034998839145 0.00000000000000 1.71493236538520
 0.99011666279715 2.80047282571864 1.71493236538520
 0.00000000000000 0.00000000000000 3.42986473077041
# Cartesian coordinates in Angstrom.
PRIMCOORD
 3 1
W     0.00000000000000     0.00000000000000     0.00000000000000
O     0.99011666279715     0.70011820642966     1.71493236538520
O     2.97034998839145     2.10035461928898     5.14479709615562