CRYSTAL
# Primitive lattice vectors in Angstrom
PRIMVEC
 2.67468000861346 0.00000000000000 1.54422722296909
 0.89156000287115 2.52171249545956 1.54422722296909
 0.00000000000000 0.00000000000000 3.08845444593818
# Cartesian coordinates in Angstrom.
PRIMCOORD
 2 1
W     0.00000000000000     0.00000000000000     0.00000000000000
O     1.78312000574231     1.26085624772978     3.08845444593818