CRYSTAL
# Primitive lattice vectors in Angstrom
PRIMVEC
 4.44739665249068 0.00000000000000 2.56770565450854
 1.48246555083022 4.19304577547002 2.56770565450854
 0.00000000000000 0.00000000000000 5.13541130901707
# Cartesian coordinates in Angstrom.
PRIMCOORD
 3 1
Xe     1.48246555083022     1.04826144386750     2.56770565450854
Xe     4.44739665249068     3.14478433160251     7.70311696352561
O     0.00000000000000     0.00000000000000     0.00000000000000