CRYSTAL
# Primitive lattice vectors in Angstrom
PRIMVEC
 3.31352680731095 0.00000000000000 1.91306559416802
 1.10450893577032 3.12402303345731 1.91306559416802
 0.00000000000000 0.00000000000000 3.82613118833604
# Cartesian coordinates in Angstrom.
PRIMCOORD
 2 1
Xe     0.00000000000000     0.00000000000000     0.00000000000000
O     2.20901787154064     1.56201151672865     3.82613118833604