CRYSTAL
# Primitive lattice vectors in Angstrom
PRIMVEC
 3.97458963116953 0.00000000000000 0.00000000000000
 -0.00000000000000 3.97458963116953 0.00000000000000
 0.00000000000000 0.00000000000000 3.97458963116953
# Cartesian coordinates in Angstrom.
PRIMCOORD
 4 1
Xe     0.00000000000000     0.00000000000000     0.00000000000000
O     1.98729481558476     0.00000000000000     0.00000000000000
O     0.00000000000000     1.98729481558476     0.00000000000000
O     0.00000000000000     0.00000000000000     1.98729481558476