CRYSTAL
# Primitive lattice vectors in Angstrom
PRIMVEC
 5.61950260587716 0.00000000000000 0.00000000000000
 -0.00000000000000 5.61950260587716 0.00000000000000
 0.00000000000000 0.00000000000000 5.61950260587716
# Cartesian coordinates in Angstrom.
PRIMCOORD
 10 1
Xe     1.40487565146929     1.40487565146929     1.40487565146929
Xe     4.21462695440787     4.21462695440787     1.40487565146929
Xe     4.21462695440787     1.40487565146929     4.21462695440787
Xe     1.40487565146929     4.21462695440787     4.21462695440787
O     2.80975130293858     0.00000000000000     0.00000000000000
O     0.00000000000000     2.80975130293858     0.00000000000000
O     0.00000000000000     0.00000000000000     2.80975130293858
O     2.80975130293858     2.80975130293858     0.00000000000000
O     2.80975130293858     0.00000000000000     2.80975130293858
O     0.00000000000000     2.80975130293858     2.80975130293858