CRYSTAL
# Primitive lattice vectors in Angstrom
PRIMVEC
 3.40109665069740 0.00000000000000 1.96362406682007
 1.13369888356580 3.20658467357198 1.96362406682007
 0.00000000000000 0.00000000000000 3.92724813364015
# Cartesian coordinates in Angstrom.
PRIMCOORD
 3 1
Xe     0.00000000000000     0.00000000000000     0.00000000000000
O     1.13369888356580     0.80164616839300     1.96362406682007
O     3.40109665069740     2.40493850517899     5.89087220046023