CRYSTAL
# Primitive lattice vectors in Angstrom
PRIMVEC
 5.46976032668767 0.00000000000000 0.00000000000000
 -0.00000000000000 5.46976032668767 0.00000000000000
 0.00000000000000 0.00000000000000 5.46976032668767
# Cartesian coordinates in Angstrom.
PRIMCOORD
 14 1
Xe     0.00000000000000     0.00000000000000     0.00000000000000
Xe     2.73488016334383     2.73488016334383     0.00000000000000
Xe     2.73488016334383     0.00000000000000     2.73488016334383
Xe     0.00000000000000     2.73488016334383     2.73488016334383
O     2.73488016334383     0.00000000000000     0.00000000000000
O     0.00000000000000     2.73488016334383     0.00000000000000
O     0.00000000000000     0.00000000000000     2.73488016334383
O     2.73488016334383     2.73488016334383     2.73488016334383
O     4.10232024501575     4.10232024501575     1.36744008167192
O     4.10232024501575     1.36744008167192     4.10232024501575
O     1.36744008167192     4.10232024501575     4.10232024501575
O     4.10232024501575     1.36744008167192     1.36744008167192
O     1.36744008167192     4.10232024501575     1.36744008167192
O     1.36744008167192     1.36744008167192     4.10232024501575