CRYSTAL
# Primitive lattice vectors in Angstrom
PRIMVEC
 3.60349547878544 0.00000000000000 2.08047908470037
 1.20116515959514 3.39740811869900 2.08047908470037
 0.00000000000000 0.00000000000000 4.16095816940075
# Cartesian coordinates in Angstrom.
PRIMCOORD
 3 1
Y     1.20116515959514     0.84935202967475     2.08047908470037
Y     3.60349547878544     2.54805608902425     6.24143725410112
O     0.00000000000000     0.00000000000000     0.00000000000000