CRYSTAL
# Primitive lattice vectors in Angstrom
PRIMVEC
 5.23598910896095 0.00000000000000 0.00000000000000
 -0.00000000000000 5.23598910896095 0.00000000000000
 0.00000000000000 0.00000000000000 5.23598910896095
# Cartesian coordinates in Angstrom.
PRIMCOORD
 10 1
Y     1.30899727724023     1.30899727724023     1.30899727724023
Y     3.92699183172071     3.92699183172071     1.30899727724023
Y     3.92699183172071     1.30899727724023     3.92699183172071
Y     1.30899727724023     3.92699183172071     3.92699183172071
O     2.61799455448048     0.00000000000000     0.00000000000000
O     0.00000000000000     2.61799455448048     0.00000000000000
O     0.00000000000000     0.00000000000000     2.61799455448048
O     2.61799455448048     2.61799455448048     0.00000000000000
O     2.61799455448048     0.00000000000000     2.61799455448048
O     0.00000000000000     2.61799455448048     2.61799455448048