CRYSTAL
# Primitive lattice vectors in Angstrom
PRIMVEC
 5.34746104262065 0.00000000000000 0.00000000000000
 -0.00000000000000 5.34746104262065 0.00000000000000
 0.00000000000000 0.00000000000000 5.34746104262065
# Cartesian coordinates in Angstrom.
PRIMCOORD
 14 1
Y     0.00000000000000     0.00000000000000     0.00000000000000
Y     2.67373052131033     2.67373052131033     0.00000000000000
Y     2.67373052131033     0.00000000000000     2.67373052131033
Y     0.00000000000000     2.67373052131033     2.67373052131033
O     2.67373052131033     0.00000000000000     0.00000000000000
O     0.00000000000000     2.67373052131033     0.00000000000000
O     0.00000000000000     0.00000000000000     2.67373052131033
O     2.67373052131033     2.67373052131033     2.67373052131033
O     4.01059578196549     4.01059578196549     1.33686526065516
O     4.01059578196549     1.33686526065516     4.01059578196549
O     1.33686526065516     4.01059578196549     4.01059578196549
O     4.01059578196549     1.33686526065516     1.33686526065516
O     1.33686526065516     4.01059578196549     1.33686526065516
O     1.33686526065516     1.33686526065516     4.01059578196549