CRYSTAL
# Primitive lattice vectors in Angstrom
PRIMVEC
 2.88638116669528 0.00000000000000 1.66645294357538
 0.96212705556509 2.72130626141249 1.66645294357538
 0.00000000000000 0.00000000000000 3.33290588715077
# Cartesian coordinates in Angstrom.
PRIMCOORD
 2 1
Y     0.00000000000000     0.00000000000000     0.00000000000000
O     1.92425411113019     1.36065313070624     3.33290588715077