CRYSTAL
# Primitive lattice vectors in Angstrom
PRIMVEC
 4.33943056064370 0.00000000000000 0.00000000000000
 -0.00000000000000 4.33943056064370 0.00000000000000
 0.00000000000000 0.00000000000000 4.33943056064370
# Cartesian coordinates in Angstrom.
PRIMCOORD
 4 1
Y     0.00000000000000     0.00000000000000     0.00000000000000
O     2.16971528032185     0.00000000000000     0.00000000000000
O     0.00000000000000     2.16971528032185     0.00000000000000
O     0.00000000000000     0.00000000000000     2.16971528032185