CRYSTAL
# Primitive lattice vectors in Angstrom
PRIMVEC
 3.25523569306455 0.00000000000000 1.87941120366650
 1.08507856435485 3.06906564390192 1.87941120366650
 0.00000000000000 0.00000000000000 3.75882240733299
# Cartesian coordinates in Angstrom.
PRIMCOORD
 3 1
Y     0.00000000000000     0.00000000000000     0.00000000000000
O     1.08507856435485     0.76726641097548     1.87941120366650
O     3.25523569306455     2.30179923292644     5.63823361099950