CRYSTAL
# Primitive lattice vectors in Angstrom
PRIMVEC
 3.55648460190253 0.00000000000000 2.05333734227719
 1.18549486730084 3.35308583892109 2.05333734227719
 0.00000000000000 0.00000000000000 4.10667468455438
# Cartesian coordinates in Angstrom.
PRIMCOORD
 3 1
Yb     1.18549486730084     0.83827145973027     2.05333734227719
Yb     3.55648460190253     2.51481437919082     6.16001202683156
O     0.00000000000000     0.00000000000000     0.00000000000000