CRYSTAL
# Primitive lattice vectors in Angstrom
PRIMVEC
 5.14523731085063 0.00000000000000 0.00000000000000
 -0.00000000000000 5.14523731085063 0.00000000000000
 0.00000000000000 0.00000000000000 5.14523731085063
# Cartesian coordinates in Angstrom.
PRIMCOORD
 10 1
Yb     1.28630932771266     1.28630932771266     1.28630932771266
Yb     3.85892798313797     3.85892798313797     1.28630932771266
Yb     3.85892798313797     1.28630932771266     3.85892798313797
Yb     1.28630932771266     3.85892798313797     3.85892798313797
O     2.57261865542532     0.00000000000000     0.00000000000000
O     0.00000000000000     2.57261865542532     0.00000000000000
O     0.00000000000000     0.00000000000000     2.57261865542532
O     2.57261865542532     2.57261865542532     0.00000000000000
O     2.57261865542532     0.00000000000000     2.57261865542532
O     0.00000000000000     2.57261865542532     2.57261865542532