CRYSTAL
# Primitive lattice vectors in Angstrom
PRIMVEC
 2.85659301331456 0.00000000000000 1.64925474520236
 0.95219767110485 2.69322172107312 1.64925474520236
 0.00000000000000 0.00000000000000 3.29850949040472
# Cartesian coordinates in Angstrom.
PRIMCOORD
 2 1
Yb     0.00000000000000     0.00000000000000     0.00000000000000
O     1.90439534220970     1.34661086053655     3.29850949040472