CRYSTAL
# Primitive lattice vectors in Angstrom
PRIMVEC
 4.10424811910934 0.00000000000000 0.00000000000000
 -0.00000000000000 4.10424811910934 0.00000000000000
 0.00000000000000 0.00000000000000 4.10424811910934
# Cartesian coordinates in Angstrom.
PRIMCOORD
 4 1
Yb     0.00000000000000     0.00000000000000     0.00000000000000
O     2.05212405955467     0.00000000000000     0.00000000000000
O     0.00000000000000     2.05212405955467     0.00000000000000
O     0.00000000000000     0.00000000000000     2.05212405955467