CRYSTAL
# Primitive lattice vectors in Angstrom
PRIMVEC
 5.24758303629508 0.00000000000000 0.00000000000000
 -0.00000000000000 5.24758303629508 0.00000000000000
 0.00000000000000 0.00000000000000 5.24758303629508
# Cartesian coordinates in Angstrom.
PRIMCOORD
 14 1
Yb     0.00000000000000     0.00000000000000     0.00000000000000
Yb     2.62379151814754     2.62379151814754     0.00000000000000
Yb     2.62379151814754     0.00000000000000     2.62379151814754
Yb     0.00000000000000     2.62379151814754     2.62379151814754
O     2.62379151814754     0.00000000000000     0.00000000000000
O     0.00000000000000     2.62379151814754     0.00000000000000
O     0.00000000000000     0.00000000000000     2.62379151814754
O     2.62379151814754     2.62379151814754     2.62379151814754
O     3.93568727722131     3.93568727722131     1.31189575907377
O     3.93568727722131     1.31189575907377     3.93568727722131
O     1.31189575907377     3.93568727722131     3.93568727722131
O     3.93568727722131     1.31189575907377     1.31189575907377
O     1.31189575907377     3.93568727722131     1.31189575907377
O     1.31189575907377     1.31189575907377     3.93568727722131