CRYSTAL
# Primitive lattice vectors in Angstrom
PRIMVEC
 3.16022901002093 0.00000000000000 1.82455906963644
 1.05340967000697 2.97949248411766 1.82455906963644
 0.00000000000000 0.00000000000000 3.64911813927289
# Cartesian coordinates in Angstrom.
PRIMCOORD
 3 1
Yb     0.00000000000000     0.00000000000000     0.00000000000000
O     1.05340967000697     0.74487312102942     1.82455906963644
O     3.16022901002093     2.23461936308825     5.47367720890934