CRYSTAL
# Primitive lattice vectors in Angstrom
PRIMVEC
 3.23793651341160 0.00000000000000 1.86942351763711
 1.07931217113720 3.05275582091316 1.86942351763711
 0.00000000000000 0.00000000000000 3.73884703527421
# Cartesian coordinates in Angstrom.
PRIMCOORD
 3 1
Zn     1.07931217113720     0.76318895522829     1.86942351763711
Zn     3.23793651341160     2.28956686568487     5.60827055291132
O     0.00000000000000     0.00000000000000     0.00000000000000