CRYSTAL
# Primitive lattice vectors in Angstrom
PRIMVEC
 3.71686315918932 0.00000000000000 0.00000000000000
 -0.00000000000000 3.71686315918932 0.00000000000000
 0.00000000000000 0.00000000000000 3.71686315918932
# Cartesian coordinates in Angstrom.
PRIMCOORD
 4 1
Zn     0.00000000000000     0.00000000000000     0.00000000000000
O     1.85843157959465     0.00000000000000     0.00000000000000
O     0.00000000000000     1.85843157959465     0.00000000000000
O     0.00000000000000     0.00000000000000     1.85843157959465