CRYSTAL
# Primitive lattice vectors in Angstrom
PRIMVEC
 2.94465383767465 0.00000000000000 1.70009668585172
 0.98155127922488 2.77624626248899 1.70009668585172
 0.00000000000000 0.00000000000000 3.40019337170345
# Cartesian coordinates in Angstrom.
PRIMCOORD
 3 1
Zn     0.00000000000000     0.00000000000000     0.00000000000000
O     0.98155127922488     0.69406156562225     1.70009668585172
O     2.94465383767465     2.08218469686674     5.10029005755518