CRYSTAL
# Primitive lattice vectors in Angstrom
PRIMVEC
 4.70119665668519 0.00000000000000 0.00000000000000
 -0.00000000000000 4.70119665668519 0.00000000000000
 0.00000000000000 0.00000000000000 4.70119665668519
# Cartesian coordinates in Angstrom.
PRIMCOORD
 10 1
Zn     1.17529916417129     1.17529916417129     1.17529916417129
Zn     3.52589749251389     3.52589749251389     1.17529916417129
Zn     3.52589749251389     1.17529916417129     3.52589749251389
Zn     1.17529916417129     3.52589749251389     3.52589749251389
O     2.35059832834260     0.00000000000000     0.00000000000000
O     0.00000000000000     2.35059832834260     0.00000000000000
O     0.00000000000000     0.00000000000000     2.35059832834260
O     2.35059832834260     2.35059832834260     0.00000000000000
O     2.35059832834260     0.00000000000000     2.35059832834260
O     0.00000000000000     2.35059832834260     2.35059832834260