CRYSTAL
# Primitive lattice vectors in Angstrom
PRIMVEC
 4.99585191006202 0.00000000000000 0.00000000000000
 -0.00000000000000 4.99585191006202 0.00000000000000
 0.00000000000000 0.00000000000000 4.99585191006202
# Cartesian coordinates in Angstrom.
PRIMCOORD
 14 1
Zn     0.00000000000000     0.00000000000000     0.00000000000000
Zn     2.49792595503101     2.49792595503101     0.00000000000000
Zn     2.49792595503101     0.00000000000000     2.49792595503101
Zn     0.00000000000000     2.49792595503101     2.49792595503101
O     2.49792595503101     0.00000000000000     0.00000000000000
O     0.00000000000000     2.49792595503101     0.00000000000000
O     0.00000000000000     0.00000000000000     2.49792595503101
O     2.49792595503101     2.49792595503101     2.49792595503101
O     3.74688893254652     3.74688893254652     1.24896297751551
O     3.74688893254652     1.24896297751551     3.74688893254652
O     1.24896297751551     3.74688893254652     3.74688893254652
O     3.74688893254652     1.24896297751551     1.24896297751551
O     1.24896297751551     3.74688893254652     1.24896297751551
O     1.24896297751551     1.24896297751551     3.74688893254652