CRYSTAL
# Primitive lattice vectors in Angstrom
PRIMVEC
 2.57900447108847 0.00000000000000 1.48898892562417
 0.85966815702949 2.43150873362277 1.48898892562417
 0.00000000000000 0.00000000000000 2.97797785124834
# Cartesian coordinates in Angstrom.
PRIMCOORD
 2 1
Zn     0.00000000000000     0.00000000000000     0.00000000000000
O     1.71933631405898     1.21575436681138     2.97797785124834