CRYSTAL
# Primitive lattice vectors in Angstrom
PRIMVEC
 2.75629579564548 0.00000000000000 1.59134811958215
 0.91876526521516 2.59866059740919 1.59134811958215
 0.00000000000000 0.00000000000000 3.18269623916430
# Cartesian coordinates in Angstrom.
PRIMCOORD
 2 1
Zr     0.00000000000000     0.00000000000000     0.00000000000000
O     1.83753053043032     1.29933029870459     3.18269623916430