CRYSTAL
# Primitive lattice vectors in Angstrom
PRIMVEC
 4.97964269207179 0.00000000000000 0.00000000000000
 -0.00000000000000 4.97964269207179 0.00000000000000
 0.00000000000000 0.00000000000000 4.97964269207179
# Cartesian coordinates in Angstrom.
PRIMCOORD
 10 1
Zr     1.24491067301794     1.24491067301794     1.24491067301794
Zr     3.73473201905384     3.73473201905384     1.24491067301794
Zr     3.73473201905384     1.24491067301794     3.73473201905384
Zr     1.24491067301794     3.73473201905384     3.73473201905384
O     2.48982134603590     0.00000000000000     0.00000000000000
O     0.00000000000000     2.48982134603590     0.00000000000000
O     0.00000000000000     0.00000000000000     2.48982134603590
O     2.48982134603590     2.48982134603590     0.00000000000000
O     2.48982134603590     0.00000000000000     2.48982134603590
O     0.00000000000000     2.48982134603590     2.48982134603590