CRYSTAL
# Primitive lattice vectors in Angstrom
PRIMVEC
 3.44928444195218 0.00000000000000 1.99144530107268
 1.14976148065072 3.25201655886085 1.99144530107268
 0.00000000000000 0.00000000000000 3.98289060214536
# Cartesian coordinates in Angstrom.
PRIMCOORD
 3 1
Zr     1.14976148065072     0.81300413971521     1.99144530107268
Zr     3.44928444195218     2.43901241914564     5.97433590321804
O     0.00000000000000     0.00000000000000     0.00000000000000