CRYSTAL
# Primitive lattice vectors in Angstrom
PRIMVEC
 5.13401534548849 0.00000000000000 0.00000000000000
 -0.00000000000000 5.13401534548849 0.00000000000000
 0.00000000000000 0.00000000000000 5.13401534548849
# Cartesian coordinates in Angstrom.
PRIMCOORD
 14 1
Zr     0.00000000000000     0.00000000000000     0.00000000000000
Zr     2.56700767274425     2.56700767274425     0.00000000000000
Zr     2.56700767274425     0.00000000000000     2.56700767274425
Zr     0.00000000000000     2.56700767274425     2.56700767274425
O     2.56700767274425     0.00000000000000     0.00000000000000
O     0.00000000000000     2.56700767274425     0.00000000000000
O     0.00000000000000     0.00000000000000     2.56700767274425
O     2.56700767274425     2.56700767274425     2.56700767274425
O     3.85051150911637     3.85051150911637     1.28350383637212
O     3.85051150911637     1.28350383637212     3.85051150911637
O     1.28350383637212     3.85051150911637     3.85051150911637
O     3.85051150911637     1.28350383637212     1.28350383637212
O     1.28350383637212     3.85051150911637     1.28350383637212
O     1.28350383637212     1.28350383637212     3.85051150911637