CRYSTAL
# Primitive lattice vectors in Angstrom
PRIMVEC
 3.07817312935360 0.00000000000000 1.77718408484457
 1.02605770978453 2.90212945790953 1.77718408484457
 0.00000000000000 0.00000000000000 3.55436816968915
# Cartesian coordinates in Angstrom.
PRIMCOORD
 3 1
Zr     0.00000000000000     0.00000000000000     0.00000000000000
O     1.02605770978453     0.72553236447738     1.77718408484457
O     3.07817312935360     2.17659709343215     5.33155225453373