CRYSTAL
PRIMVEC
 0.00000000000000 4.01415345486924 4.01415345486924
 4.01415345486924 0.00000000000000 4.01415345486924
 4.01415345486924 4.01415345486924 0.00000000000000
PRIMCOORD
 2 1
 89     0.00000000000000     0.00000000000000     0.00000000000000
 89     2.00707672743462     2.00707672743462     2.00707672743462
