CRYSTAL
PRIMVEC
 0.00000000000000 3.10867208733834 3.10867208733834
 3.10867208733834 0.00000000000000 3.10867208733834
 3.10867208733834 3.10867208733834 0.00000000000000
PRIMCOORD
 2 1
 47     0.00000000000000     0.00000000000000     0.00000000000000
 47     1.55433604366917     1.55433604366917     1.55433604366917
