CRYSTAL
PRIMVEC
 0.00000000000000 3.02232467704529 3.02232467704529
 3.02232467704529 0.00000000000000 3.02232467704529
 3.02232467704529 3.02232467704529 0.00000000000000
PRIMCOORD
 2 1
 13     0.00000000000000     0.00000000000000     0.00000000000000
 13     1.51116233852265     1.51116233852265     1.51116233852265
