CRYSTAL
PRIMVEC
 0.00000000000000 2.68307365799704 2.68307365799704
 2.68307365799704 0.00000000000000 2.68307365799704
 2.68307365799704 2.68307365799704 0.00000000000000
PRIMCOORD
 2 1
 95     0.00000000000000     0.00000000000000     0.00000000000000
 95     1.34153682899852     1.34153682899852     1.34153682899852
