CRYSTAL
PRIMVEC
 0.00000000000000 4.62705685200752 4.62705685200752
 4.62705685200752 0.00000000000000 4.62705685200752
 4.62705685200752 4.62705685200752 0.00000000000000
PRIMCOORD
 2 1
 18     0.00000000000000     0.00000000000000     0.00000000000000
 18     2.31352842600376     2.31352842600376     2.31352842600376
