CRYSTAL
PRIMVEC
 0.00000000000000 3.05615423858296 3.05615423858296
 3.05615423858296 0.00000000000000 3.05615423858296
 3.05615423858296 3.05615423858296 0.00000000000000
PRIMCOORD
 2 1
 33     0.00000000000000     0.00000000000000     0.00000000000000
 33     1.52807711929148     1.52807711929148     1.52807711929148
