CRYSTAL
PRIMVEC
 0.00000000000000 4.06064387665491 4.06064387665491
 4.06064387665491 0.00000000000000 4.06064387665491
 4.06064387665491 4.06064387665491 0.00000000000000
PRIMCOORD
 2 1
 85     0.00000000000000     0.00000000000000     0.00000000000000
 85     2.03032193832746     2.03032193832746     2.03032193832746
