CRYSTAL
PRIMVEC
 0.00000000000000 3.08166257856175 3.08166257856175
 3.08166257856175 0.00000000000000 3.08166257856175
 3.08166257856175 3.08166257856175 0.00000000000000
PRIMCOORD
 2 1
 79     0.00000000000000     0.00000000000000     0.00000000000000
 79     1.54083128928088     1.54083128928088     1.54083128928088
