CRYSTAL
PRIMVEC
 0.00000000000000 2.02570881344398 2.02570881344398
 2.02570881344398 0.00000000000000 2.02570881344398
 2.02570881344398 2.02570881344398 0.00000000000000
PRIMCOORD
 2 1
  5     0.00000000000000     0.00000000000000     0.00000000000000
  5     1.01285440672199     1.01285440672199     1.01285440672199
