CRYSTAL
PRIMVEC
 0.00000000000000 3.84034598996124 3.84034598996124
 3.84034598996124 0.00000000000000 3.84034598996124
 3.84034598996124 3.84034598996124 0.00000000000000
PRIMCOORD
 2 1
 56     0.00000000000000     0.00000000000000     0.00000000000000
 56     1.92017299498062     1.92017299498062     1.92017299498062
