CRYSTAL
PRIMVEC
 0.00000000000000 2.44907677734491 2.44907677734491
 2.44907677734491 0.00000000000000 2.44907677734491
 2.44907677734491 2.44907677734491 0.00000000000000
PRIMCOORD
 2 1
  4     0.00000000000000     0.00000000000000     0.00000000000000
  4     1.22453838867246     1.22453838867246     1.22453838867246
