CRYSTAL
PRIMVEC
 0.00000000000000 3.64792808971982 3.64792808971982
 3.64792808971982 0.00000000000000 3.64792808971982
 3.64792808971982 3.64792808971982 0.00000000000000
PRIMCOORD
 2 1
 83     0.00000000000000     0.00000000000000     0.00000000000000
 83     1.82396404485991     1.82396404485991     1.82396404485991
