CRYSTAL
PRIMVEC
 0.00000000000000 3.50551222396854 3.50551222396854
 3.50551222396854 0.00000000000000 3.50551222396854
 3.50551222396854 3.50551222396854 0.00000000000000
PRIMCOORD
 2 1
 35     0.00000000000000     0.00000000000000     0.00000000000000
 35     1.75275611198427     1.75275611198427     1.75275611198427
