CRYSTAL
PRIMVEC
 0.00000000000000 1.78607217993556 1.78607217993556
 1.78607217993556 0.00000000000000 1.78607217993556
 1.78607217993556 1.78607217993556 0.00000000000000
PRIMCOORD
 2 1
  6     0.00000000000000     0.00000000000000     0.00000000000000
  6     0.89303608996778     0.89303608996778     0.89303608996778
