CRYSTAL
PRIMVEC
 0.00000000000000 4.30970410276073 4.30970410276073
 4.30970410276073 0.00000000000000 4.30970410276073
 4.30970410276073 4.30970410276073 0.00000000000000
PRIMCOORD
 2 1
 20     0.00000000000000     0.00000000000000     0.00000000000000
 20     2.15485205138037     2.15485205138037     2.15485205138037
