CRYSTAL
PRIMVEC
 0.00000000000000 3.34104340300224 3.34104340300224
 3.34104340300224 0.00000000000000 3.34104340300224
 3.34104340300224 3.34104340300224 0.00000000000000
PRIMCOORD
 2 1
 48     0.00000000000000     0.00000000000000     0.00000000000000
 48     1.67052170150112     1.67052170150112     1.67052170150112
