CRYSTAL
PRIMVEC
 0.00000000000000 3.11401183432428 3.11401183432428
 3.11401183432428 0.00000000000000 3.11401183432428
 3.11401183432428 3.11401183432428 0.00000000000000
PRIMCOORD
 2 1
 58     0.00000000000000     0.00000000000000     0.00000000000000
 58     1.55700591716214     1.55700591716214     1.55700591716214
