CRYSTAL
PRIMVEC
 0.00000000000000 3.23192906831811 3.23192906831811
 3.23192906831811 0.00000000000000 3.23192906831811
 3.23192906831811 3.23192906831811 0.00000000000000
PRIMCOORD
 2 1
 17     0.00000000000000     0.00000000000000     0.00000000000000
 17     1.61596453415905     1.61596453415905     1.61596453415905
