CRYSTAL
PRIMVEC
 0.00000000000000 2.67287941147738 2.67287941147738
 2.67287941147738 0.00000000000000 2.67287941147738
 2.67287941147738 2.67287941147738 0.00000000000000
PRIMCOORD
 2 1
 96     0.00000000000000     0.00000000000000     0.00000000000000
 96     1.33643970573869     1.33643970573869     1.33643970573869
