CRYSTAL
PRIMVEC
 0.00000000000000 2.46009308906132 2.46009308906132
 2.46009308906132 0.00000000000000 2.46009308906132
 2.46009308906132 2.46009308906132 0.00000000000000
PRIMCOORD
 2 1
 27     0.00000000000000     0.00000000000000     0.00000000000000
 27     1.23004654453066     1.23004654453066     1.23004654453066
