CRYSTAL
PRIMVEC
 0.00000000000000 2.54827369373979 2.54827369373979
 2.54827369373979 0.00000000000000 2.54827369373979
 2.54827369373979 2.54827369373979 0.00000000000000
PRIMCOORD
 2 1
 24     0.00000000000000     0.00000000000000     0.00000000000000
 24     1.27413684686989     1.27413684686989     1.27413684686989
