CRYSTAL
PRIMVEC
 0.00000000000000 5.73781240314323 5.73781240314323
 5.73781240314323 0.00000000000000 5.73781240314323
 5.73781240314323 5.73781240314323 0.00000000000000
PRIMCOORD
 2 1
 55     0.00000000000000     0.00000000000000     0.00000000000000
 55     2.86890620157161     2.86890620157161     2.86890620157161
