CRYSTAL
PRIMVEC
 0.00000000000000 2.67673901111671 2.67673901111671
 2.67673901111671 0.00000000000000 2.67673901111671
 2.67673901111671 2.67673901111671 0.00000000000000
PRIMCOORD
 2 1
 29     0.00000000000000     0.00000000000000     0.00000000000000
 29     1.33836950555835     1.33836950555835     1.33836950555835
