CRYSTAL
PRIMVEC
 0.00000000000000 2.84540181783194 2.84540181783194
 2.84540181783194 0.00000000000000 2.84540181783194
 2.84540181783194 2.84540181783194 0.00000000000000
PRIMCOORD
 2 1
 66     0.00000000000000     0.00000000000000     0.00000000000000
 66     1.42270090891597     1.42270090891597     1.42270090891597
