CRYSTAL
PRIMVEC
 0.00000000000000 2.74595288863469 2.74595288863469
 2.74595288863469 0.00000000000000 2.74595288863469
 2.74595288863469 2.74595288863469 0.00000000000000
PRIMCOORD
 2 1
 63     0.00000000000000     0.00000000000000     0.00000000000000
 63     1.37297644431734     1.37297644431734     1.37297644431734
