CRYSTAL
PRIMVEC
 0.00000000000000 2.43861161372206 2.43861161372206
 2.43861161372206 0.00000000000000 2.43861161372206
 2.43861161372206 2.43861161372206 0.00000000000000
PRIMCOORD
 2 1
  9     0.00000000000000     0.00000000000000     0.00000000000000
  9     1.21930580686103     1.21930580686103     1.21930580686103
