CRYSTAL
PRIMVEC
 0.00000000000000 2.43670391554990 2.43670391554990
 2.43670391554990 0.00000000000000 2.43670391554990
 2.43670391554990 2.43670391554990 0.00000000000000
PRIMCOORD
 2 1
 26     0.00000000000000     0.00000000000000     0.00000000000000
 26     1.21835195777495     1.21835195777495     1.21835195777495
