CRYSTAL
PRIMVEC
 0.00000000000000 5.77097058667135 5.77097058667135
 5.77097058667135 0.00000000000000 5.77097058667135
 5.77097058667135 5.77097058667135 0.00000000000000
PRIMCOORD
 2 1
 87     0.00000000000000     0.00000000000000     0.00000000000000
 87     2.88548529333567     2.88548529333567     2.88548529333567
