CRYSTAL
PRIMVEC
 0.00000000000000 2.94072630832819 2.94072630832819
 2.94072630832819 0.00000000000000 2.94072630832819
 2.94072630832819 2.94072630832819 0.00000000000000
PRIMCOORD
 2 1
 31     0.00000000000000     0.00000000000000     0.00000000000000
 31     1.47036315416409     1.47036315416409     1.47036315416409
