CRYSTAL
PRIMVEC
 0.00000000000000 2.75765095531715 2.75765095531715
 2.75765095531715 0.00000000000000 2.75765095531715
 2.75765095531715 2.75765095531715 0.00000000000000
PRIMCOORD
 2 1
 64     0.00000000000000     0.00000000000000     0.00000000000000
 64     1.37882547765858     1.37882547765858     1.37882547765858
