CRYSTAL
PRIMVEC
 0.00000000000000 2.88138581877284 2.88138581877284
 2.88138581877284 0.00000000000000 2.88138581877284
 2.88138581877284 2.88138581877284 0.00000000000000
PRIMCOORD
 2 1
 32     0.00000000000000     0.00000000000000     0.00000000000000
 32     1.44069290938642     1.44069290938642     1.44069290938642
