CRYSTAL
PRIMVEC
 0.00000000000000 1.50727365538875 1.50727365538875
 1.50727365538875 0.00000000000000 1.50727365538875
 1.50727365538875 1.50727365538875 0.00000000000000
PRIMCOORD
 2 1
  1     0.00000000000000     0.00000000000000     0.00000000000000
  1     0.75363682769438     0.75363682769438     0.75363682769438
