CRYSTAL
PRIMVEC
 0.00000000000000 3.18012882292205 3.18012882292205
 3.18012882292205 0.00000000000000 3.18012882292205
 3.18012882292205 3.18012882292205 0.00000000000000
PRIMCOORD
 2 1
  2     0.00000000000000     0.00000000000000     0.00000000000000
  2     1.59006441146103     1.59006441146103     1.59006441146103
