CRYSTAL
PRIMVEC
 0.00000000000000 3.27426680405152 3.27426680405152
 3.27426680405152 0.00000000000000 3.27426680405152
 3.27426680405152 3.27426680405152 0.00000000000000
PRIMCOORD
 2 1
 72     0.00000000000000     0.00000000000000     0.00000000000000
 72     1.63713340202576     1.63713340202576     1.63713340202576
