CRYSTAL
PRIMVEC
 0.00000000000000 3.83730865371457 3.83730865371457
 3.83730865371457 0.00000000000000 3.83730865371457
 3.83730865371457 3.83730865371457 0.00000000000000
PRIMCOORD
 2 1
 80     0.00000000000000     0.00000000000000     0.00000000000000
 80     1.91865432685729     1.91865432685729     1.91865432685729
