CRYSTAL
PRIMVEC
 0.00000000000000 2.94137115572960 2.94137115572960
 2.94137115572960 0.00000000000000 2.94137115572960
 2.94137115572960 2.94137115572960 0.00000000000000
PRIMCOORD
 2 1
 67     0.00000000000000     0.00000000000000     0.00000000000000
 67     1.47068557786480     1.47068557786480     1.47068557786480
