CRYSTAL
PRIMVEC
 0.00000000000000 3.92724561424492 3.92724561424492
 3.92724561424492 0.00000000000000 3.92724561424492
 3.92724561424492 3.92724561424492 0.00000000000000
PRIMCOORD
 2 1
 53     0.00000000000000     0.00000000000000     0.00000000000000
 53     1.96362280712246     1.96362280712246     1.96362280712246
