CRYSTAL
PRIMVEC
 0.00000000000000 3.36600890803559 3.36600890803559
 3.36600890803559 0.00000000000000 3.36600890803559
 3.36600890803559 3.36600890803559 0.00000000000000
PRIMCOORD
 2 1
 49     0.00000000000000     0.00000000000000     0.00000000000000
 49     1.68300445401779     1.68300445401779     1.68300445401779
