CRYSTAL
PRIMVEC
 0.00000000000000 2.78550883932900 2.78550883932900
 2.78550883932900 0.00000000000000 2.78550883932900
 2.78550883932900 2.78550883932900 0.00000000000000
PRIMCOORD
 2 1
 77     0.00000000000000     0.00000000000000     0.00000000000000
 77     1.39275441966450     1.39275441966450     1.39275441966450
