CRYSTAL
PRIMVEC
 0.00000000000000 4.82204769192226 4.82204769192226
 4.82204769192226 0.00000000000000 4.82204769192226
 4.82204769192226 4.82204769192226 0.00000000000000
PRIMCOORD
 2 1
 19     0.00000000000000     0.00000000000000     0.00000000000000
 19     2.41102384596113     2.41102384596113     2.41102384596113
