CRYSTAL
PRIMVEC
 0.00000000000000 5.00330172134549 5.00330172134549
 5.00330172134549 0.00000000000000 5.00330172134549
 5.00330172134549 5.00330172134549 0.00000000000000
PRIMCOORD
 2 1
 36     0.00000000000000     0.00000000000000     0.00000000000000
 36     2.50165086067275     2.50165086067275     2.50165086067275
