CRYSTAL
PRIMVEC
 0.00000000000000 3.34274900169802 3.34274900169802
 3.34274900169802 0.00000000000000 3.34274900169802
 3.34274900169802 3.34274900169802 0.00000000000000
PRIMCOORD
 2 1
 57     0.00000000000000     0.00000000000000     0.00000000000000
 57     1.67137450084901     1.67137450084901     1.67137450084901
