CRYSTAL
PRIMVEC
 0.00000000000000 2.95032248047587 2.95032248047587
 2.95032248047587 0.00000000000000 2.95032248047587
 2.95032248047587 2.95032248047587 0.00000000000000
PRIMCOORD
 2 1
  3     0.00000000000000     0.00000000000000     0.00000000000000
  3     1.47516124023794     1.47516124023794     1.47516124023794
