CRYSTAL
PRIMVEC
 0.00000000000000 3.69857633862952 3.69857633862952
 3.69857633862952 0.00000000000000 3.69857633862952
 3.69857633862952 3.69857633862952 0.00000000000000
PRIMCOORD
 2 1
 71     0.00000000000000     0.00000000000000     0.00000000000000
 71     1.84928816931476     1.84928816931476     1.84928816931476
