CRYSTAL
PRIMVEC
 0.00000000000000 3.43125980199049 3.43125980199049
 3.43125980199049 0.00000000000000 3.43125980199049
 3.43125980199049 3.43125980199049 0.00000000000000
PRIMCOORD
 2 1
 12     0.00000000000000     0.00000000000000     0.00000000000000
 12     1.71562990099525     1.71562990099525     1.71562990099525
