CRYSTAL
PRIMVEC
 0.00000000000000 2.47601137330658 2.47601137330658
 2.47601137330658 0.00000000000000 2.47601137330658
 2.47601137330658 2.47601137330658 0.00000000000000
PRIMCOORD
 2 1
 25     0.00000000000000     0.00000000000000     0.00000000000000
 25     1.23800568665329     1.23800568665329     1.23800568665329
