CRYSTAL
PRIMVEC
 0.00000000000000 2.84481036468727 2.84481036468727
 2.84481036468727 0.00000000000000 2.84481036468727
 2.84481036468727 2.84481036468727 0.00000000000000
PRIMCOORD
 2 1
 42     0.00000000000000     0.00000000000000     0.00000000000000
 42     1.42240518234363     1.42240518234363     1.42240518234363
