CRYSTAL
PRIMVEC
 0.00000000000000 2.09363673301109 2.09363673301109
 2.09363673301109 0.00000000000000 2.09363673301109
 2.09363673301109 2.09363673301109 0.00000000000000
PRIMCOORD
 2 1
  7     0.00000000000000     0.00000000000000     0.00000000000000
  7     1.04681836650555     1.04681836650555     1.04681836650555
