CRYSTAL
PRIMVEC
 0.00000000000000 3.78973741563616 3.78973741563616
 3.78973741563616 0.00000000000000 3.78973741563616
 3.78973741563616 3.78973741563616 0.00000000000000
PRIMCOORD
 2 1
 11     0.00000000000000     0.00000000000000     0.00000000000000
 11     1.89486870781808     1.89486870781808     1.89486870781808
