CRYSTAL
PRIMVEC
 0.00000000000000 2.95577629691306 2.95577629691306
 2.95577629691306 0.00000000000000 2.95577629691306
 2.95577629691306 2.95577629691306 0.00000000000000
PRIMCOORD
 2 1
 41     0.00000000000000     0.00000000000000     0.00000000000000
 41     1.47788814845653     1.47788814845653     1.47788814845653
