CRYSTAL
PRIMVEC
 0.00000000000000 2.86729575827746 2.86729575827746
 2.86729575827746 0.00000000000000 2.86729575827746
 2.86729575827746 2.86729575827746 0.00000000000000
PRIMCOORD
 2 1
 60     0.00000000000000     0.00000000000000     0.00000000000000
 60     1.43364787913873     1.43364787913873     1.43364787913873
