CRYSTAL
PRIMVEC
 0.00000000000000 3.54499059450962 3.54499059450962
 3.54499059450962 0.00000000000000 3.54499059450962
 3.54499059450962 3.54499059450962 0.00000000000000
PRIMCOORD
 2 1
 10     0.00000000000000     0.00000000000000     0.00000000000000
 10     1.77249529725481     1.77249529725481     1.77249529725481
