CRYSTAL
PRIMVEC
 0.00000000000000 2.54633356068670 2.54633356068670
 2.54633356068670 0.00000000000000 2.54633356068670
 2.54633356068670 2.54633356068670 0.00000000000000
PRIMCOORD
 2 1
 28     0.00000000000000     0.00000000000000     0.00000000000000
 28     1.27316678034335     1.27316678034335     1.27316678034335
