CRYSTAL
PRIMVEC
 0.00000000000000 2.77969598489806 2.77969598489806
 2.77969598489806 0.00000000000000 2.77969598489806
 2.77969598489806 2.77969598489806 0.00000000000000
PRIMCOORD
 2 1
 93     0.00000000000000     0.00000000000000     0.00000000000000
 93     1.38984799244903     1.38984799244903     1.38984799244903
