CRYSTAL
PRIMVEC
 0.00000000000000 2.20234327170721 2.20234327170721
 2.20234327170721 0.00000000000000 2.20234327170721
 2.20234327170721 2.20234327170721 0.00000000000000
PRIMCOORD
 2 1
  8     0.00000000000000     0.00000000000000     0.00000000000000
  8     1.10117163585360     1.10117163585360     1.10117163585360
