CRYSTAL
PRIMVEC
 0.00000000000000 2.77913913706683 2.77913913706683
 2.77913913706683 0.00000000000000 2.77913913706683
 2.77913913706683 2.77913913706683 0.00000000000000
PRIMCOORD
 2 1
 76     0.00000000000000     0.00000000000000     0.00000000000000
 76     1.38956956853342     1.38956956853342     1.38956956853342
