CRYSTAL
PRIMVEC
 0.00000000000000 2.74302175127768 2.74302175127768
 2.74302175127768 0.00000000000000 2.74302175127768
 2.74302175127768 2.74302175127768 0.00000000000000
PRIMCOORD
 2 1
 15     0.00000000000000     0.00000000000000     0.00000000000000
 15     1.37151087563884     1.37151087563884     1.37151087563884
