CRYSTAL
PRIMVEC
 0.00000000000000 3.13085973856271 3.13085973856271
 3.13085973856271 0.00000000000000 3.13085973856271
 3.13085973856271 3.13085973856271 0.00000000000000
PRIMCOORD
 2 1
 91     0.00000000000000     0.00000000000000     0.00000000000000
 91     1.56542986928136     1.56542986928136     1.56542986928136
