CRYSTAL
PRIMVEC
 0.00000000000000 3.53074393977630 3.53074393977630
 3.53074393977630 0.00000000000000 3.53074393977630
 3.53074393977630 3.53074393977630 0.00000000000000
PRIMCOORD
 2 1
 82     0.00000000000000     0.00000000000000     0.00000000000000
 82     1.76537196988815     1.76537196988815     1.76537196988815
