CRYSTAL
PRIMVEC
 0.00000000000000 2.90519635441336 2.90519635441336
 2.90519635441336 0.00000000000000 2.90519635441336
 2.90519635441336 2.90519635441336 0.00000000000000
PRIMCOORD
 2 1
 46     0.00000000000000     0.00000000000000     0.00000000000000
 46     1.45259817720668     1.45259817720668     1.45259817720668
