CRYSTAL
PRIMVEC
 0.00000000000000 2.78821501321645 2.78821501321645
 2.78821501321645 0.00000000000000 2.78821501321645
 2.78821501321645 2.78821501321645 0.00000000000000
PRIMCOORD
 2 1
 61     0.00000000000000     0.00000000000000     0.00000000000000
 61     1.39410750660823     1.39410750660823     1.39410750660823
