CRYSTAL
PRIMVEC
 0.00000000000000 3.74383693469329 3.74383693469329
 3.74383693469329 0.00000000000000 3.74383693469329
 3.74383693469329 3.74383693469329 0.00000000000000
PRIMCOORD
 2 1
 84     0.00000000000000     0.00000000000000     0.00000000000000
 84     1.87191846734665     1.87191846734665     1.87191846734665
