CRYSTAL
PRIMVEC
 0.00000000000000 2.97150572717260 2.97150572717260
 2.97150572717260 0.00000000000000 2.97150572717260
 2.97150572717260 2.97150572717260 0.00000000000000
PRIMCOORD
 2 1
 59     0.00000000000000     0.00000000000000     0.00000000000000
 59     1.48575286358630     1.48575286358630     1.48575286358630
