CRYSTAL
PRIMVEC
 0.00000000000000 2.88960679609594 2.88960679609594
 2.88960679609594 0.00000000000000 2.88960679609594
 2.88960679609594 2.88960679609594 0.00000000000000
PRIMCOORD
 2 1
 78     0.00000000000000     0.00000000000000     0.00000000000000
 78     1.44480339804797     1.44480339804797     1.44480339804797
