CRYSTAL
PRIMVEC
 0.00000000000000 2.71828205888917 2.71828205888917
 2.71828205888917 0.00000000000000 2.71828205888917
 2.71828205888917 2.71828205888917 0.00000000000000
PRIMCOORD
 2 1
 94     0.00000000000000     0.00000000000000     0.00000000000000
 94     1.35914102944459     1.35914102944459     1.35914102944459
