CRYSTAL
PRIMVEC
 0.00000000000000 5.53610415885728 5.53610415885728
 5.53610415885728 0.00000000000000 5.53610415885728
 5.53610415885728 5.53610415885728 0.00000000000000
PRIMCOORD
 2 1
 88     0.00000000000000     0.00000000000000     0.00000000000000
 88     2.76805207942864     2.76805207942864     2.76805207942864
