CRYSTAL
PRIMVEC
 0.00000000000000 5.21163146528315 5.21163146528315
 5.21163146528315 0.00000000000000 5.21163146528315
 5.21163146528315 5.21163146528315 0.00000000000000
PRIMCOORD
 2 1
 37     0.00000000000000     0.00000000000000     0.00000000000000
 37     2.60581573264157     2.60581573264157     2.60581573264157
