CRYSTAL
PRIMVEC
 0.00000000000000 2.82646480076926 2.82646480076926
 2.82646480076926 0.00000000000000 2.82646480076926
 2.82646480076926 2.82646480076926 0.00000000000000
PRIMCOORD
 2 1
 75     0.00000000000000     0.00000000000000     0.00000000000000
 75     1.41323240038463     1.41323240038463     1.41323240038463
