CRYSTAL
PRIMVEC
 0.00000000000000 2.75715523929812 2.75715523929812
 2.75715523929812 0.00000000000000 2.75715523929812
 2.75715523929812 2.75715523929812 0.00000000000000
PRIMCOORD
 2 1
 45     0.00000000000000     0.00000000000000     0.00000000000000
 45     1.37857761964906     1.37857761964906     1.37857761964906
