CRYSTAL
PRIMVEC
 0.00000000000000 5.62174759678107 5.62174759678107
 5.62174759678107 0.00000000000000 5.62174759678107
 5.62174759678107 5.62174759678107 0.00000000000000
PRIMCOORD
 2 1
 86     0.00000000000000     0.00000000000000     0.00000000000000
 86     2.81087379839054     2.81087379839054     2.81087379839054
