CRYSTAL
PRIMVEC
 0.00000000000000 2.72823812366033 2.72823812366033
 2.72823812366033 0.00000000000000 2.72823812366033
 2.72823812366033 2.72823812366033 0.00000000000000
PRIMCOORD
 2 1
 44     0.00000000000000     0.00000000000000     0.00000000000000
 44     1.36411906183017     1.36411906183017     1.36411906183017
