CRYSTAL
PRIMVEC
 0.00000000000000 2.89623431003549 2.89623431003549
 2.89623431003549 0.00000000000000 2.89623431003549
 2.89623431003549 2.89623431003549 0.00000000000000
PRIMCOORD
 2 1
 16     0.00000000000000     0.00000000000000     0.00000000000000
 16     1.44811715501775     1.44811715501775     1.44811715501775
