CRYSTAL
PRIMVEC
 0.00000000000000 3.49734973930284 3.49734973930284
 3.49734973930284 0.00000000000000 3.49734973930284
 3.49734973930284 3.49734973930284 0.00000000000000
PRIMCOORD
 2 1
 51     0.00000000000000     0.00000000000000     0.00000000000000
 51     1.74867486965142     1.74867486965142     1.74867486965142
