CRYSTAL
PRIMVEC
 0.00000000000000 3.25293400310461 3.25293400310461
 3.25293400310461 0.00000000000000 3.25293400310461
 3.25293400310461 3.25293400310461 0.00000000000000
PRIMCOORD
 2 1
 21     0.00000000000000     0.00000000000000     0.00000000000000
 21     1.62646700155231     1.62646700155231     1.62646700155231
