CRYSTAL
PRIMVEC
 0.00000000000000 3.16646362121187 3.16646362121187
 3.16646362121187 0.00000000000000 3.16646362121187
 3.16646362121187 3.16646362121187 0.00000000000000
PRIMCOORD
 2 1
 34     0.00000000000000     0.00000000000000     0.00000000000000
 34     1.58323181060593     1.58323181060593     1.58323181060593
