CRYSTAL
PRIMVEC
 0.00000000000000 2.73510256962861 2.73510256962861
 2.73510256962861 0.00000000000000 2.73510256962861
 2.73510256962861 2.73510256962861 0.00000000000000
PRIMCOORD
 2 1
 14     0.00000000000000     0.00000000000000     0.00000000000000
 14     1.36755128481431     1.36755128481431     1.36755128481431
