CRYSTAL
PRIMVEC
 0.00000000000000 2.75555282043072 2.75555282043072
 2.75555282043072 0.00000000000000 2.75555282043072
 2.75555282043072 2.75555282043072 0.00000000000000
PRIMCOORD
 2 1
 62     0.00000000000000     0.00000000000000     0.00000000000000
 62     1.37777641021536     1.37777641021536     1.37777641021536
