CRYSTAL
PRIMVEC
 0.00000000000000 3.32748308190016 3.32748308190016
 3.32748308190016 0.00000000000000 3.32748308190016
 3.32748308190016 3.32748308190016 0.00000000000000
PRIMCOORD
 2 1
 50     0.00000000000000     0.00000000000000     0.00000000000000
 50     1.66374154095008     1.66374154095008     1.66374154095008
