CRYSTAL
PRIMVEC
 0.00000000000000 4.82087362315581 4.82087362315581
 4.82087362315581 0.00000000000000 4.82087362315581
 4.82087362315581 4.82087362315581 0.00000000000000
PRIMCOORD
 2 1
 38     0.00000000000000     0.00000000000000     0.00000000000000
 38     2.41043681157791     2.41043681157791     2.41043681157791
