CRYSTAL
PRIMVEC
 0.00000000000000 3.05172516757360 3.05172516757360
 3.05172516757360 0.00000000000000 3.05172516757360
 3.05172516757360 3.05172516757360 0.00000000000000
PRIMCOORD
 2 1
 73     0.00000000000000     0.00000000000000     0.00000000000000
 73     1.52586258378680     1.52586258378680     1.52586258378680
