CRYSTAL
PRIMVEC
 0.00000000000000 2.79018091721483 2.79018091721483
 2.79018091721483 0.00000000000000 2.79018091721483
 2.79018091721483 2.79018091721483 0.00000000000000
PRIMCOORD
 2 1
 65     0.00000000000000     0.00000000000000     0.00000000000000
 65     1.39509045860742     1.39509045860742     1.39509045860742
