CRYSTAL
PRIMVEC
 0.00000000000000 2.77018337854581 2.77018337854581
 2.77018337854581 0.00000000000000 2.77018337854581
 2.77018337854581 2.77018337854581 0.00000000000000
PRIMCOORD
 2 1
 43     0.00000000000000     0.00000000000000     0.00000000000000
 43     1.38509168927291     1.38509168927291     1.38509168927291
