CRYSTAL
PRIMVEC
 0.00000000000000 3.59377200200925 3.59377200200925
 3.59377200200925 0.00000000000000 3.59377200200925
 3.59377200200925 3.59377200200925 0.00000000000000
PRIMCOORD
 2 1
 52     0.00000000000000     0.00000000000000     0.00000000000000
 52     1.79688600100463     1.79688600100463     1.79688600100463
