CRYSTAL
PRIMVEC
 0.00000000000000 3.58975509940557 3.58975509940557
 3.58975509940557 0.00000000000000 3.58975509940557
 3.58975509940557 3.58975509940557 0.00000000000000
PRIMCOORD
 2 1
 90     0.00000000000000     0.00000000000000     0.00000000000000
 90     1.79487754970279     1.79487754970279     1.79487754970279
