CRYSTAL
PRIMVEC
 0.00000000000000 2.84154952743246 2.84154952743246
 2.84154952743246 0.00000000000000 2.84154952743246
 2.84154952743246 2.84154952743246 0.00000000000000
PRIMCOORD
 2 1
 22     0.00000000000000     0.00000000000000     0.00000000000000
 22     1.42077476371623     1.42077476371623     1.42077476371623
