CRYSTAL
PRIMVEC
 0.00000000000000 3.56255041777918 3.56255041777918
 3.56255041777918 0.00000000000000 3.56255041777918
 3.56255041777918 3.56255041777918 0.00000000000000
PRIMCOORD
 2 1
 81     0.00000000000000     0.00000000000000     0.00000000000000
 81     1.78127520888959     1.78127520888959     1.78127520888959
