CRYSTAL
PRIMVEC
 0.00000000000000 4.33824105069114 4.33824105069114
 4.33824105069114 0.00000000000000 4.33824105069114
 4.33824105069114 4.33824105069114 0.00000000000000
PRIMCOORD
 2 1
 69     0.00000000000000     0.00000000000000     0.00000000000000
 69     2.16912052534557     2.16912052534557     2.16912052534557
