CRYSTAL
PRIMVEC
 0.00000000000000 2.91691929998868 2.91691929998868
 2.91691929998868 0.00000000000000 2.91691929998868
 2.91691929998868 2.91691929998868 0.00000000000000
PRIMCOORD
 2 1
 92     0.00000000000000     0.00000000000000     0.00000000000000
 92     1.45845964999434     1.45845964999434     1.45845964999434
