CRYSTAL
PRIMVEC
 0.00000000000000 2.65146002401145 2.65146002401145
 2.65146002401145 0.00000000000000 2.65146002401145
 2.65146002401145 2.65146002401145 0.00000000000000
PRIMCOORD
 2 1
 23     0.00000000000000     0.00000000000000     0.00000000000000
 23     1.32573001200573     1.32573001200573     1.32573001200573
