CRYSTAL
PRIMVEC
 0.00000000000000 2.91576097566846 2.91576097566846
 2.91576097566846 0.00000000000000 2.91576097566846
 2.91576097566846 2.91576097566846 0.00000000000000
PRIMCOORD
 2 1
 74     0.00000000000000     0.00000000000000     0.00000000000000
 74     1.45788048783423     1.45788048783423     1.45788048783423
