CRYSTAL
PRIMVEC
 0.00000000000000 5.49719830087838 5.49719830087838
 5.49719830087838 0.00000000000000 5.49719830087838
 5.49719830087838 5.49719830087838 0.00000000000000
PRIMCOORD
 2 1
 54     0.00000000000000     0.00000000000000     0.00000000000000
 54     2.74859915043919     2.74859915043919     2.74859915043919
