CRYSTAL
PRIMVEC
 0.00000000000000 3.52518836252834 3.52518836252834
 3.52518836252834 0.00000000000000 3.52518836252834
 3.52518836252834 3.52518836252834 0.00000000000000
PRIMCOORD
 2 1
 39     0.00000000000000     0.00000000000000     0.00000000000000
 39     1.76259418126417     1.76259418126417     1.76259418126417
