CRYSTAL
PRIMVEC
 0.00000000000000 4.34501768803356 4.34501768803356
 4.34501768803356 0.00000000000000 4.34501768803356
 4.34501768803356 4.34501768803356 0.00000000000000
PRIMCOORD
 2 1
 70     0.00000000000000     0.00000000000000     0.00000000000000
 70     2.17250884401678     2.17250884401678     2.17250884401678
