CRYSTAL
PRIMVEC
 0.00000000000000 2.91168922618880 2.91168922618880
 2.91168922618880 0.00000000000000 2.91168922618880
 2.91168922618880 2.91168922618880 0.00000000000000
PRIMCOORD
 2 1
 30     0.00000000000000     0.00000000000000     0.00000000000000
 30     1.45584461309440     1.45584461309440     1.45584461309440
