CRYSTAL
PRIMVEC
 0.00000000000000 3.14055386626888 3.14055386626888
 3.14055386626888 0.00000000000000 3.14055386626888
 3.14055386626888 3.14055386626888 0.00000000000000
PRIMCOORD
 2 1
 40     0.00000000000000     0.00000000000000     0.00000000000000
 40     1.57027693313444     1.57027693313444     1.57027693313444
