CRYSTAL
PRIMVEC
 0.00000000000000 2.77048391021735 2.77048391021735
 2.77048391021735 0.00000000000000 2.77048391021735
 2.77048391021735 2.77048391021735 0.00000000000000
PRIMCOORD
 2 1
 98     0.00000000000000     0.00000000000000     0.00000000000000
 98     1.38524195510868     1.38524195510868     1.38524195510868
