CRYSTAL
PRIMVEC
 0.00000000000000 2.89041013674984 2.89041013674984
 2.89041013674984 0.00000000000000 2.89041013674984
 2.89041013674984 2.89041013674984 0.00000000000000
PRIMCOORD
 2 1
 99     0.00000000000000     0.00000000000000     0.00000000000000
 99     1.44520506837492     1.44520506837492     1.44520506837492
