CRYSTAL
PRIMVEC
 0.00000000000000 3.27399565326315 3.27399565326315
 3.27399565326315 0.00000000000000 3.27399565326315
 3.27399565326315 3.27399565326315 0.00000000000000
PRIMCOORD
 2 1
 100     0.00000000000000     0.00000000000000     0.00000000000000
 100     1.63699782663158     1.63699782663158     1.63699782663158
