CRYSTAL
PRIMVEC
 0.00000000000000 3.80467746283853 3.80467746283853
 3.80467746283853 0.00000000000000 3.80467746283853
 3.80467746283853 3.80467746283853 0.00000000000000
PRIMCOORD
 2 1
 103     0.00000000000000     0.00000000000000     0.00000000000000
 103     1.90233873141927     1.90233873141927     1.90233873141927
