CRYSTAL
PRIMVEC
 0.00000000000000 4.38155935276699 4.38155935276699
 4.38155935276699 0.00000000000000 4.38155935276699
 4.38155935276699 4.38155935276699 0.00000000000000
PRIMCOORD
 2 1
 101     0.00000000000000     0.00000000000000     0.00000000000000
 101     2.19077967638349     2.19077967638349     2.19077967638349
