CRYSTAL
PRIMVEC
 0.00000000000000 4.77058183785511 4.77058183785511
 4.77058183785511 0.00000000000000 4.77058183785511
 4.77058183785511 4.77058183785511 0.00000000000000
PRIMCOORD
 2 1
 102     0.00000000000000     0.00000000000000     0.00000000000000
 102     2.38529091892756     2.38529091892756     2.38529091892756
