CRYSTAL
PRIMVEC
 0.00000000000000 3.90951460490148 3.90951460490148
 3.90951460490148 0.00000000000000 3.90951460490148
 3.90951460490148 3.90951460490148 0.00000000000000
PRIMCOORD
 2 1
 89     0.00000000000000     0.00000000000000     0.00000000000000
 89     1.95475730245074     1.95475730245074     1.95475730245074
