CRYSTAL
PRIMVEC
 0.00000000000000 3.90951437667648 3.90951437667648
 3.90951437667648 0.00000000000000 3.90951437667648
 3.90951437667648 3.90951437667648 0.00000000000000
PRIMCOORD
 2 1
 89     0.00000000000000     0.00000000000000     0.00000000000000
 89     1.95475718833824     1.95475718833824     1.95475718833824
