CRYSTAL
PRIMVEC
 0.00000000000000 3.01956761649671 3.01956761649671
 3.01956761649671 0.00000000000000 3.01956761649671
 3.01956761649671 3.01956761649671 0.00000000000000
PRIMCOORD
 2 1
 47     0.00000000000000     0.00000000000000     0.00000000000000
 47     1.50978380824835     1.50978380824835     1.50978380824835
