CRYSTAL
PRIMVEC
 0.00000000000000 3.01956761852472 3.01956761852472
 3.01956761852472 0.00000000000000 3.01956761852472
 3.01956761852472 3.01956761852472 0.00000000000000
PRIMCOORD
 2 1
 47     0.00000000000000     0.00000000000000     0.00000000000000
 47     1.50978380926236     1.50978380926236     1.50978380926236
