CRYSTAL
PRIMVEC
 0.00000000000000 2.99705405250023 2.99705405250023
 2.99705405250023 0.00000000000000 2.99705405250023
 2.99705405250023 2.99705405250023 0.00000000000000
PRIMCOORD
 2 1
 13     0.00000000000000     0.00000000000000     0.00000000000000
 13     1.49852702625011     1.49852702625011     1.49852702625011
