CRYSTAL
PRIMVEC
 0.00000000000000 2.99705405901855 2.99705405901855
 2.99705405901855 0.00000000000000 2.99705405901855
 2.99705405901855 2.99705405901855 0.00000000000000
PRIMCOORD
 2 1
 13     0.00000000000000     0.00000000000000     0.00000000000000
 13     1.49852702950927     1.49852702950927     1.49852702950927
