CRYSTAL
PRIMVEC
 0.00000000000000 2.65487885867093 2.65487885867093
 2.65487885867093 0.00000000000000 2.65487885867093
 2.65487885867093 2.65487885867093 0.00000000000000
PRIMCOORD
 2 1
 95     0.00000000000000     0.00000000000000     0.00000000000000
 95     1.32743942933546     1.32743942933546     1.32743942933546
