CRYSTAL
PRIMVEC
 0.00000000000000 2.65487899318165 2.65487899318165
 2.65487899318165 0.00000000000000 2.65487899318165
 2.65487899318165 2.65487899318165 0.00000000000000
PRIMCOORD
 2 1
 95     0.00000000000000     0.00000000000000     0.00000000000000
 95     1.32743949659083     1.32743949659083     1.32743949659083
