CRYSTAL
PRIMVEC
 0.00000000000000 4.58064881059975 4.58064881059975
 4.58064881059975 0.00000000000000 4.58064881059975
 4.58064881059975 4.58064881059975 0.00000000000000
PRIMCOORD
 2 1
 18     0.00000000000000     0.00000000000000     0.00000000000000
 18     2.29032440529987     2.29032440529987     2.29032440529987
