CRYSTAL
PRIMVEC
 0.00000000000000 4.58064905778351 4.58064905778351
 4.58064905778351 0.00000000000000 4.58064905778351
 4.58064905778351 4.58064905778351 0.00000000000000
PRIMCOORD
 2 1
 18     0.00000000000000     0.00000000000000     0.00000000000000
 18     2.29032452889176     2.29032452889176     2.29032452889176
