CRYSTAL
PRIMVEC
 0.00000000000000 3.00497163374218 3.00497163374218
 3.00497163374218 0.00000000000000 3.00497163374218
 3.00497163374218 3.00497163374218 0.00000000000000
PRIMCOORD
 2 1
 33     0.00000000000000     0.00000000000000     0.00000000000000
 33     1.50248581687109     1.50248581687109     1.50248581687109
