CRYSTAL
PRIMVEC
 0.00000000000000 3.00497165433639 3.00497165433639
 3.00497165433639 0.00000000000000 3.00497165433639
 3.00497165433639 3.00497165433639 0.00000000000000
PRIMCOORD
 2 1
 33     0.00000000000000     0.00000000000000     0.00000000000000
 33     1.50248582716819     1.50248582716819     1.50248582716819
