CRYSTAL
PRIMVEC
 0.00000000000000 3.96563022845333 3.96563022845333
 3.96563022845333 0.00000000000000 3.96563022845333
 3.96563022845333 3.96563022845333 0.00000000000000
PRIMCOORD
 2 1
 85     0.00000000000000     0.00000000000000     0.00000000000000
 85     1.98281511422666     1.98281511422666     1.98281511422666
