CRYSTAL
PRIMVEC
 0.00000000000000 3.96563018207087 3.96563018207087
 3.96563018207087 0.00000000000000 3.96563018207087
 3.96563018207087 3.96563018207087 0.00000000000000
PRIMCOORD
 2 1
 85     0.00000000000000     0.00000000000000     0.00000000000000
 85     1.98281509103543     1.98281509103543     1.98281509103543
