CRYSTAL
PRIMVEC
 0.00000000000000 3.01315171904480 3.01315171904480
 3.01315171904480 0.00000000000000 3.01315171904480
 3.01315171904480 3.01315171904480 0.00000000000000
PRIMCOORD
 2 1
 79     0.00000000000000     0.00000000000000     0.00000000000000
 79     1.50657585952240     1.50657585952240     1.50657585952240
