CRYSTAL
PRIMVEC
 0.00000000000000 2.01594938466167 2.01594938466167
 2.01594938466167 0.00000000000000 2.01594938466167
 2.01594938466167 2.01594938466167 0.00000000000000
PRIMCOORD
 2 1
  5     0.00000000000000     0.00000000000000     0.00000000000000
  5     1.00797469233083     1.00797469233083     1.00797469233083
