CRYSTAL
PRIMVEC
 0.00000000000000 2.01594938393223 2.01594938393223
 2.01594938393223 0.00000000000000 2.01594938393223
 2.01594938393223 2.01594938393223 0.00000000000000
PRIMCOORD
 2 1
  5     0.00000000000000     0.00000000000000     0.00000000000000
  5     1.00797469196612     1.00797469196612     1.00797469196612
