CRYSTAL
PRIMVEC
 0.00000000000000 3.70274235719911 3.70274235719911
 3.70274235719911 0.00000000000000 3.70274235719911
 3.70274235719911 3.70274235719911 0.00000000000000
PRIMCOORD
 2 1
 56     0.00000000000000     0.00000000000000     0.00000000000000
 56     1.85137117859956     1.85137117859956     1.85137117859956
