CRYSTAL
PRIMVEC
 0.00000000000000 3.70274244359159 3.70274244359159
 3.70274244359159 0.00000000000000 3.70274244359159
 3.70274244359159 3.70274244359159 0.00000000000000
PRIMCOORD
 2 1
 56     0.00000000000000     0.00000000000000     0.00000000000000
 56     1.85137122179579     1.85137122179579     1.85137122179579
