CRYSTAL
PRIMVEC
 0.00000000000000 2.43706739159359 2.43706739159359
 2.43706739159359 0.00000000000000 2.43706739159359
 2.43706739159359 2.43706739159359 0.00000000000000
PRIMCOORD
 2 1
  4     0.00000000000000     0.00000000000000     0.00000000000000
  4     1.21853369579679     1.21853369579679     1.21853369579679
