CRYSTAL
PRIMVEC
 0.00000000000000 2.43706738456564 2.43706738456564
 2.43706738456564 0.00000000000000 2.43706738456564
 2.43706738456564 2.43706738456564 0.00000000000000
PRIMCOORD
 2 1
  4     0.00000000000000     0.00000000000000     0.00000000000000
  4     1.21853369228282     1.21853369228282     1.21853369228282
