CRYSTAL
PRIMVEC
 0.00000000000000 3.58418726782034 3.58418726782034
 3.58418726782034 0.00000000000000 3.58418726782034
 3.58418726782034 3.58418726782034 0.00000000000000
PRIMCOORD
 2 1
 83     0.00000000000000     0.00000000000000     0.00000000000000
 83     1.79209363391017     1.79209363391017     1.79209363391017
