CRYSTAL
PRIMVEC
 0.00000000000000 3.58418725065272 3.58418725065272
 3.58418725065272 0.00000000000000 3.58418725065272
 3.58418725065272 3.58418725065272 0.00000000000000
PRIMCOORD
 2 1
 83     0.00000000000000     0.00000000000000     0.00000000000000
 83     1.79209362532636     1.79209362532636     1.79209362532636
