CRYSTAL
PRIMVEC
 0.00000000000000 2.66559372674001 2.66559372674001
 2.66559372674001 0.00000000000000 2.66559372674001
 2.66559372674001 2.66559372674001 0.00000000000000
PRIMCOORD
 2 1
 97     0.00000000000000     0.00000000000000     0.00000000000000
 97     1.33279686337001     1.33279686337001     1.33279686337001
