CRYSTAL
PRIMVEC
 0.00000000000000 2.66559347230161 2.66559347230161
 2.66559347230161 0.00000000000000 2.66559347230161
 2.66559347230161 2.66559347230161 0.00000000000000
PRIMCOORD
 2 1
 97     0.00000000000000     0.00000000000000     0.00000000000000
 97     1.33279673615081     1.33279673615081     1.33279673615081
