CRYSTAL
PRIMVEC
 0.00000000000000 3.41929890541445 3.41929890541445
 3.41929890541445 0.00000000000000 3.41929890541445
 3.41929890541445 3.41929890541445 0.00000000000000
PRIMCOORD
 2 1
 35     0.00000000000000     0.00000000000000     0.00000000000000
 35     1.70964945270723     1.70964945270723     1.70964945270723
