CRYSTAL
PRIMVEC
 0.00000000000000 3.41929890245938 3.41929890245938
 3.41929890245938 0.00000000000000 3.41929890245938
 3.41929890245938 3.41929890245938 0.00000000000000
PRIMCOORD
 2 1
 35     0.00000000000000     0.00000000000000     0.00000000000000
 35     1.70964945122969     1.70964945122969     1.70964945122969
