CRYSTAL
PRIMVEC
 0.00000000000000 1.77705313103285 1.77705313103285
 1.77705313103285 0.00000000000000 1.77705313103285
 1.77705313103285 1.77705313103285 0.00000000000000
PRIMCOORD
 2 1
  6     0.00000000000000     0.00000000000000     0.00000000000000
  6     0.88852656551643     0.88852656551643     0.88852656551643
