CRYSTAL
PRIMVEC
 0.00000000000000 4.21714985125300 4.21714985125300
 4.21714985125300 0.00000000000000 4.21714985125300
 4.21714985125300 4.21714985125300 0.00000000000000
PRIMCOORD
 2 1
 20     0.00000000000000     0.00000000000000     0.00000000000000
 20     2.10857492562650     2.10857492562650     2.10857492562650
