CRYSTAL
PRIMVEC
 0.00000000000000 4.21714983954210 4.21714983954210
 4.21714983954210 0.00000000000000 4.21714983954210
 4.21714983954210 4.21714983954210 0.00000000000000
PRIMCOORD
 2 1
 20     0.00000000000000     0.00000000000000     0.00000000000000
 20     2.10857491977105     2.10857491977105     2.10857491977105
