CRYSTAL
PRIMVEC
 0.00000000000000 3.22370374379558 3.22370374379558
 3.22370374379558 0.00000000000000 3.22370374379558
 3.22370374379558 3.22370374379558 0.00000000000000
PRIMCOORD
 2 1
 48     0.00000000000000     0.00000000000000     0.00000000000000
 48     1.61185187189779     1.61185187189779     1.61185187189779
