CRYSTAL
PRIMVEC
 0.00000000000000 3.22370373910119 3.22370373910119
 3.22370373910119 0.00000000000000 3.22370373910119
 3.22370373910119 3.22370373910119 0.00000000000000
PRIMCOORD
 2 1
 48     0.00000000000000     0.00000000000000     0.00000000000000
 48     1.61185186955059     1.61185186955059     1.61185186955059
