CRYSTAL
PRIMVEC
 0.00000000000000 3.06648387932409 3.06648387932409
 3.06648387932409 0.00000000000000 3.06648387932409
 3.06648387932409 3.06648387932409 0.00000000000000
PRIMCOORD
 2 1
 58     0.00000000000000     0.00000000000000     0.00000000000000
 58     1.53324193966204     1.53324193966204     1.53324193966204
