CRYSTAL
PRIMVEC
 0.00000000000000 2.71044926141726 2.71044926141726
 2.71044926141726 0.00000000000000 2.71044926141726
 2.71044926141726 2.71044926141726 0.00000000000000
PRIMCOORD
 2 1
 98     0.00000000000000     0.00000000000000     0.00000000000000
 98     1.35522463070863     1.35522463070863     1.35522463070863
