CRYSTAL
PRIMVEC
 0.00000000000000 3.15091288433472 3.15091288433472
 3.15091288433472 0.00000000000000 3.15091288433472
 3.15091288433472 3.15091288433472 0.00000000000000
PRIMCOORD
 2 1
 17     0.00000000000000     0.00000000000000     0.00000000000000
 17     1.57545644216736     1.57545644216736     1.57545644216736
