CRYSTAL
PRIMVEC
 0.00000000000000 2.64498517641314 2.64498517641314
 2.64498517641314 0.00000000000000 2.64498517641314
 2.64498517641314 2.64498517641314 0.00000000000000
PRIMCOORD
 2 1
 96     0.00000000000000     0.00000000000000     0.00000000000000
 96     1.32249258820657     1.32249258820657     1.32249258820657
