CRYSTAL
PRIMVEC
 0.00000000000000 2.64498532302466 2.64498532302466
 2.64498532302466 0.00000000000000 2.64498532302466
 2.64498532302466 2.64498532302466 0.00000000000000
PRIMCOORD
 2 1
 96     0.00000000000000     0.00000000000000     0.00000000000000
 96     1.32249266151233     1.32249266151233     1.32249266151233
