CRYSTAL
PRIMVEC
 0.00000000000000 2.42113843647342 2.42113843647342
 2.42113843647342 0.00000000000000 2.42113843647342
 2.42113843647342 2.42113843647342 0.00000000000000
PRIMCOORD
 2 1
 27     0.00000000000000     0.00000000000000     0.00000000000000
 27     1.21056921823671     1.21056921823671     1.21056921823671
