CRYSTAL
PRIMVEC
 0.00000000000000 2.42113840828901 2.42113840828901
 2.42113840828901 0.00000000000000 2.42113840828901
 2.42113840828901 2.42113840828901 0.00000000000000
PRIMCOORD
 2 1
 27     0.00000000000000     0.00000000000000     0.00000000000000
 27     1.21056920414451     1.21056920414451     1.21056920414451
