CRYSTAL
PRIMVEC
 0.00000000000000 2.50395941712379 2.50395941712379
 2.50395941712379 0.00000000000000 2.50395941712379
 2.50395941712379 2.50395941712379 0.00000000000000
PRIMCOORD
 2 1
 24     0.00000000000000     0.00000000000000     0.00000000000000
 24     1.25197970856190     1.25197970856190     1.25197970856190
