CRYSTAL
PRIMVEC
 0.00000000000000 5.56294307752720 5.56294307752720
 5.56294307752720 0.00000000000000 5.56294307752720
 5.56294307752720 5.56294307752720 0.00000000000000
PRIMCOORD
 2 1
 55     0.00000000000000     0.00000000000000     0.00000000000000
 55     2.78147153876360     2.78147153876360     2.78147153876360
