CRYSTAL
PRIMVEC
 0.00000000000000 5.56294309166909 5.56294309166909
 5.56294309166909 0.00000000000000 5.56294309166909
 5.56294309166909 5.56294309166909 0.00000000000000
PRIMCOORD
 2 1
 55     0.00000000000000     0.00000000000000     0.00000000000000
 55     2.78147154583455     2.78147154583455     2.78147154583455
