CRYSTAL
PRIMVEC
 0.00000000000000 2.61615139174472 2.61615139174472
 2.61615139174472 0.00000000000000 2.61615139174472
 2.61615139174472 2.61615139174472 0.00000000000000
PRIMCOORD
 2 1
 29     0.00000000000000     0.00000000000000     0.00000000000000
 29     1.30807569587236     1.30807569587236     1.30807569587236
