CRYSTAL
PRIMVEC
 0.00000000000000 2.61615138643487 2.61615138643487
 2.61615138643487 0.00000000000000 2.61615138643487
 2.61615138643487 2.61615138643487 0.00000000000000
PRIMCOORD
 2 1
 29     0.00000000000000     0.00000000000000     0.00000000000000
 29     1.30807569321744     1.30807569321744     1.30807569321744
