CRYSTAL
PRIMVEC
 0.00000000000000 2.75748115135406 2.75748115135406
 2.75748115135406 0.00000000000000 2.75748115135406
 2.75748115135406 2.75748115135406 0.00000000000000
PRIMCOORD
 2 1
 66     0.00000000000000     0.00000000000000     0.00000000000000
 66     1.37874057567703     1.37874057567703     1.37874057567703
