CRYSTAL
PRIMVEC
 0.00000000000000 2.75748114193046 2.75748114193046
 2.75748114193046 0.00000000000000 2.75748114193046
 2.75748114193046 2.75748114193046 0.00000000000000
PRIMCOORD
 2 1
 66     0.00000000000000     0.00000000000000     0.00000000000000
 66     1.37874057096523     1.37874057096523     1.37874057096523
