CRYSTAL
PRIMVEC
 0.00000000000000 2.92447398825166 2.92447398825166
 2.92447398825166 0.00000000000000 2.92447398825166
 2.92447398825166 2.92447398825166 0.00000000000000
PRIMCOORD
 2 1
 68     0.00000000000000     0.00000000000000     0.00000000000000
 68     1.46223699412583     1.46223699412583     1.46223699412583
