CRYSTAL
PRIMVEC
 0.00000000000000 2.79748889910549 2.79748889910549
 2.79748889910549 0.00000000000000 2.79748889910549
 2.79748889910549 2.79748889910549 0.00000000000000
PRIMCOORD
 2 1
 99     0.00000000000000     0.00000000000000     0.00000000000000
 99     1.39874444955275     1.39874444955275     1.39874444955275
