CRYSTAL
PRIMVEC
 0.00000000000000 2.79748890277732 2.79748890277732
 2.79748890277732 0.00000000000000 2.79748890277732
 2.79748890277732 2.79748890277732 0.00000000000000
PRIMCOORD
 2 1
 99     0.00000000000000     0.00000000000000     0.00000000000000
 99     1.39874445138866     1.39874445138866     1.39874445138866
