CRYSTAL
PRIMVEC
 0.00000000000000 2.69146977624177 2.69146977624177
 2.69146977624177 0.00000000000000 2.69146977624177
 2.69146977624177 2.69146977624177 0.00000000000000
PRIMCOORD
 2 1
 63     0.00000000000000     0.00000000000000     0.00000000000000
 63     1.34573488812089     1.34573488812089     1.34573488812089
