CRYSTAL
PRIMVEC
 0.00000000000000 2.69146980932790 2.69146980932790
 2.69146980932790 0.00000000000000 2.69146980932790
 2.69146980932790 2.69146980932790 0.00000000000000
PRIMCOORD
 2 1
 63     0.00000000000000     0.00000000000000     0.00000000000000
 63     1.34573490466395     1.34573490466395     1.34573490466395
