CRYSTAL
PRIMVEC
 0.00000000000000 2.38635216107589 2.38635216107589
 2.38635216107589 0.00000000000000 2.38635216107589
 2.38635216107589 2.38635216107589 0.00000000000000
PRIMCOORD
 2 1
  9     0.00000000000000     0.00000000000000     0.00000000000000
  9     1.19317608053794     1.19317608053794     1.19317608053794
