CRYSTAL
PRIMVEC
 0.00000000000000 2.38635215412703 2.38635215412703
 2.38635215412703 0.00000000000000 2.38635215412703
 2.38635215412703 2.38635215412703 0.00000000000000
PRIMCOORD
 2 1
  9     0.00000000000000     0.00000000000000     0.00000000000000
  9     1.19317607706352     1.19317607706352     1.19317607706352
