CRYSTAL
PRIMVEC
 0.00000000000000 2.40177369660849 2.40177369660849
 2.40177369660849 0.00000000000000 2.40177369660849
 2.40177369660849 2.40177369660849 0.00000000000000
PRIMCOORD
 2 1
 26     0.00000000000000     0.00000000000000     0.00000000000000
 26     1.20088684830425     1.20088684830425     1.20088684830425
