CRYSTAL
PRIMVEC
 0.00000000000000 2.40177374608855 2.40177374608855
 2.40177374608855 0.00000000000000 2.40177374608855
 2.40177374608855 2.40177374608855 0.00000000000000
PRIMCOORD
 2 1
 26     0.00000000000000     0.00000000000000     0.00000000000000
 26     1.20088687304428     1.20088687304428     1.20088687304428
