CRYSTAL
PRIMVEC
 0.00000000000000 2.98669484443531 2.98669484443531
 2.98669484443531 0.00000000000000 2.98669484443531
 2.98669484443531 2.98669484443531 0.00000000000000
PRIMCOORD
 2 1
 100     0.00000000000000     0.00000000000000     0.00000000000000
 100     1.49334742221766     1.49334742221766     1.49334742221766
