CRYSTAL
PRIMVEC
 0.00000000000000 2.98669452743440 2.98669452743440
 2.98669452743440 0.00000000000000 2.98669452743440
 2.98669452743440 2.98669452743440 0.00000000000000
PRIMCOORD
 2 1
 100     0.00000000000000     0.00000000000000     0.00000000000000
 100     1.49334726371720     1.49334726371720     1.49334726371720
