CRYSTAL
PRIMVEC
 0.00000000000000 5.57999774806761 5.57999774806761
 5.57999774806761 0.00000000000000 5.57999774806761
 5.57999774806761 5.57999774806761 0.00000000000000
PRIMCOORD
 2 1
 87     0.00000000000000     0.00000000000000     0.00000000000000
 87     2.78999887403380     2.78999887403380     2.78999887403380
