CRYSTAL
PRIMVEC
 0.00000000000000 5.57999769600805 5.57999769600805
 5.57999769600805 0.00000000000000 5.57999769600805
 5.57999769600805 5.57999769600805 0.00000000000000
PRIMCOORD
 2 1
 87     0.00000000000000     0.00000000000000     0.00000000000000
 87     2.78999884800402     2.78999884800402     2.78999884800402
