CRYSTAL
PRIMVEC
 0.00000000000000 2.87864572286060 2.87864572286060
 2.87864572286060 0.00000000000000 2.87864572286060
 2.87864572286060 2.87864572286060 0.00000000000000
PRIMCOORD
 2 1
 31     0.00000000000000     0.00000000000000     0.00000000000000
 31     1.43932286143030     1.43932286143030     1.43932286143030
