CRYSTAL
PRIMVEC
 0.00000000000000 2.87864572340735 2.87864572340735
 2.87864572340735 0.00000000000000 2.87864572340735
 2.87864572340735 2.87864572340735 0.00000000000000
PRIMCOORD
 2 1
 31     0.00000000000000     0.00000000000000     0.00000000000000
 31     1.43932286170368     1.43932286170368     1.43932286170368
