CRYSTAL
PRIMVEC
 0.00000000000000 2.69595053681336 2.69595053681336
 2.69595053681336 0.00000000000000 2.69595053681336
 2.69595053681336 2.69595053681336 0.00000000000000
PRIMCOORD
 2 1
 64     0.00000000000000     0.00000000000000     0.00000000000000
 64     1.34797526840668     1.34797526840668     1.34797526840668
