CRYSTAL
PRIMVEC
 0.00000000000000 2.69595061717462 2.69595061717462
 2.69595061717462 0.00000000000000 2.69595061717462
 2.69595061717462 2.69595061717462 0.00000000000000
PRIMCOORD
 2 1
 64     0.00000000000000     0.00000000000000     0.00000000000000
 64     1.34797530858731     1.34797530858731     1.34797530858731
