CRYSTAL
PRIMVEC
 0.00000000000000 2.83815822053353 2.83815822053353
 2.83815822053353 0.00000000000000 2.83815822053353
 2.83815822053353 2.83815822053353 0.00000000000000
PRIMCOORD
 2 1
 32     0.00000000000000     0.00000000000000     0.00000000000000
 32     1.41907911026677     1.41907911026677     1.41907911026677
