CRYSTAL
PRIMVEC
 0.00000000000000 2.83815825465114 2.83815825465114
 2.83815825465114 0.00000000000000 2.83815825465114
 2.83815825465114 2.83815825465114 0.00000000000000
PRIMCOORD
 2 1
 32     0.00000000000000     0.00000000000000     0.00000000000000
 32     1.41907912732557     1.41907912732557     1.41907912732557
