CRYSTAL
PRIMVEC
 0.00000000000000 1.49642198424048 1.49642198424048
 1.49642198424048 0.00000000000000 1.49642198424048
 1.49642198424048 1.49642198424048 0.00000000000000
PRIMCOORD
 2 1
  1     0.00000000000000     0.00000000000000     0.00000000000000
  1     0.74821099212024     0.74821099212024     0.74821099212024
