CRYSTAL
PRIMVEC
 0.00000000000000 1.49642198559746 1.49642198559746
 1.49642198559746 0.00000000000000 1.49642198559746
 1.49642198559746 1.49642198559746 0.00000000000000
PRIMCOORD
 2 1
  1     0.00000000000000     0.00000000000000     0.00000000000000
  1     0.74821099279873     0.74821099279873     0.74821099279873
