CRYSTAL
PRIMVEC
 0.00000000000000 3.30824319260441 3.30824319260441
 3.30824319260441 0.00000000000000 3.30824319260441
 3.30824319260441 3.30824319260441 0.00000000000000
PRIMCOORD
 2 1
  2     0.00000000000000     0.00000000000000     0.00000000000000
  2     1.65412159630220     1.65412159630220     1.65412159630220
