CRYSTAL
PRIMVEC
 0.00000000000000 3.30824337627723 3.30824337627723
 3.30824337627723 0.00000000000000 3.30824337627723
 3.30824337627723 3.30824337627723 0.00000000000000
PRIMCOORD
 2 1
  2     0.00000000000000     0.00000000000000     0.00000000000000
  2     1.65412168813862     1.65412168813862     1.65412168813862
