CRYSTAL
PRIMVEC
 0.00000000000000 3.18592877651334 3.18592877651334
 3.18592877651334 0.00000000000000 3.18592877651334
 3.18592877651334 3.18592877651334 0.00000000000000
PRIMCOORD
 2 1
 72     0.00000000000000     0.00000000000000     0.00000000000000
 72     1.59296438825667     1.59296438825667     1.59296438825667
