CRYSTAL
PRIMVEC
 0.00000000000000 3.18592877228583 3.18592877228583
 3.18592877228583 0.00000000000000 3.18592877228583
 3.18592877228583 3.18592877228583 0.00000000000000
PRIMCOORD
 2 1
 72     0.00000000000000     0.00000000000000     0.00000000000000
 72     1.59296438614291     1.59296438614291     1.59296438614291
