CRYSTAL
PRIMVEC
 0.00000000000000 3.31064886558619 3.31064886558619
 3.31064886558619 0.00000000000000 3.31064886558619
 3.31064886558619 3.31064886558619 0.00000000000000
PRIMCOORD
 2 1
 80     0.00000000000000     0.00000000000000     0.00000000000000
 80     1.65532443279310     1.65532443279310     1.65532443279310
