CRYSTAL
PRIMVEC
 0.00000000000000 3.31064861667797 3.31064861667797
 3.31064861667797 0.00000000000000 3.31064861667797
 3.31064861667797 3.31064861667797 0.00000000000000
PRIMCOORD
 2 1
 80     0.00000000000000     0.00000000000000     0.00000000000000
 80     1.65532430833899     1.65532430833899     1.65532430833899
