CRYSTAL
PRIMVEC
 0.00000000000000 2.81769948413989 2.81769948413989
 2.81769948413989 0.00000000000000 2.81769948413989
 2.81769948413989 2.81769948413989 0.00000000000000
PRIMCOORD
 2 1
 67     0.00000000000000     0.00000000000000     0.00000000000000
 67     1.40884974206994     1.40884974206994     1.40884974206994
