CRYSTAL
PRIMVEC
 0.00000000000000 2.81769947960102 2.81769947960102
 2.81769947960102 0.00000000000000 2.81769947960102
 2.81769947960102 2.81769947960102 0.00000000000000
PRIMCOORD
 2 1
 67     0.00000000000000     0.00000000000000     0.00000000000000
 67     1.40884973980051     1.40884973980051     1.40884973980051
