CRYSTAL
PRIMVEC
 0.00000000000000 3.83089337901269 3.83089337901269
 3.83089337901269 0.00000000000000 3.83089337901269
 3.83089337901269 3.83089337901269 0.00000000000000
PRIMCOORD
 2 1
 53     0.00000000000000     0.00000000000000     0.00000000000000
 53     1.91544668950635     1.91544668950635     1.91544668950635
