CRYSTAL
PRIMVEC
 0.00000000000000 3.83089338218860 3.83089338218860
 3.83089338218860 0.00000000000000 3.83089338218860
 3.83089338218860 3.83089338218860 0.00000000000000
PRIMCOORD
 2 1
 53     0.00000000000000     0.00000000000000     0.00000000000000
 53     1.91544669109430     1.91544669109430     1.91544669109430
