CRYSTAL
PRIMVEC
 0.00000000000000 3.28204475190860 3.28204475190860
 3.28204475190860 0.00000000000000 3.28204475190860
 3.28204475190860 3.28204475190860 0.00000000000000
PRIMCOORD
 2 1
 49     0.00000000000000     0.00000000000000     0.00000000000000
 49     1.64102237595430     1.64102237595430     1.64102237595430
