CRYSTAL
PRIMVEC
 0.00000000000000 3.28204476060066 3.28204476060066
 3.28204476060066 0.00000000000000 3.28204476060066
 3.28204476060066 3.28204476060066 0.00000000000000
PRIMCOORD
 2 1
 49     0.00000000000000     0.00000000000000     0.00000000000000
 49     1.64102238030033     1.64102238030033     1.64102238030033
