CRYSTAL
PRIMVEC
 0.00000000000000 2.75367601585690 2.75367601585690
 2.75367601585690 0.00000000000000 2.75367601585690
 2.75367601585690 2.75367601585690 0.00000000000000
PRIMCOORD
 2 1
 77     0.00000000000000     0.00000000000000     0.00000000000000
 77     1.37683800792845     1.37683800792845     1.37683800792845
