CRYSTAL
PRIMVEC
 0.00000000000000 2.75367602793019 2.75367602793019
 2.75367602793019 0.00000000000000 2.75367602793019
 2.75367602793019 2.75367602793019 0.00000000000000
PRIMCOORD
 2 1
 77     0.00000000000000     0.00000000000000     0.00000000000000
 77     1.37683801396510     1.37683801396510     1.37683801396510
