CRYSTAL
PRIMVEC
 0.00000000000000 4.71858319972100 4.71858319972100
 4.71858319972100 0.00000000000000 4.71858319972100
 4.71858319972100 4.71858319972100 0.00000000000000
PRIMCOORD
 2 1
 19     0.00000000000000     0.00000000000000     0.00000000000000
 19     2.35929159986050     2.35929159986050     2.35929159986050
