CRYSTAL
PRIMVEC
 0.00000000000000 4.71858320956764 4.71858320956764
 4.71858320956764 0.00000000000000 4.71858320956764
 4.71858320956764 4.71858320956764 0.00000000000000
PRIMCOORD
 2 1
 19     0.00000000000000     0.00000000000000     0.00000000000000
 19     2.35929160478382     2.35929160478382     2.35929160478382
