CRYSTAL
PRIMVEC
 0.00000000000000 4.85760005913031 4.85760005913031
 4.85760005913031 0.00000000000000 4.85760005913031
 4.85760005913031 4.85760005913031 0.00000000000000
PRIMCOORD
 2 1
 36     0.00000000000000     0.00000000000000     0.00000000000000
 36     2.42880002956516     2.42880002956516     2.42880002956516
