CRYSTAL
PRIMVEC
 0.00000000000000 4.85759987919645 4.85759987919645
 4.85759987919645 0.00000000000000 4.85759987919645
 4.85759987919645 4.85759987919645 0.00000000000000
PRIMCOORD
 2 1
 36     0.00000000000000     0.00000000000000     0.00000000000000
 36     2.42879993959823     2.42879993959823     2.42879993959823
