CRYSTAL
PRIMVEC
 0.00000000000000 3.28380861710556 3.28380861710556
 3.28380861710556 0.00000000000000 3.28380861710556
 3.28380861710556 3.28380861710556 0.00000000000000
PRIMCOORD
 2 1
 57     0.00000000000000     0.00000000000000     0.00000000000000
 57     1.64190430855278     1.64190430855278     1.64190430855278
