CRYSTAL
PRIMVEC
 0.00000000000000 3.28380894469164 3.28380894469164
 3.28380894469164 0.00000000000000 3.28380894469164
 3.28380894469164 3.28380894469164 0.00000000000000
PRIMCOORD
 2 1
 57     0.00000000000000     0.00000000000000     0.00000000000000
 57     1.64190447234582     1.64190447234582     1.64190447234582
