CRYSTAL
PRIMVEC
 0.00000000000000 2.94218749487948 2.94218749487948
 2.94218749487948 0.00000000000000 2.94218749487948
 2.94218749487948 2.94218749487948 0.00000000000000
PRIMCOORD
 2 1
  3     0.00000000000000     0.00000000000000     0.00000000000000
  3     1.47109374743974     1.47109374743974     1.47109374743974
