CRYSTAL
PRIMVEC
 0.00000000000000 2.94218751772382 2.94218751772382
 2.94218751772382 0.00000000000000 2.94218751772382
 2.94218751772382 2.94218751772382 0.00000000000000
PRIMCOORD
 2 1
  3     0.00000000000000     0.00000000000000     0.00000000000000
  3     1.47109375886191     1.47109375886191     1.47109375886191
