CRYSTAL
PRIMVEC
 0.00000000000000 3.69231001106131 3.69231001106131
 3.69231001106131 0.00000000000000 3.69231001106131
 3.69231001106131 3.69231001106131 0.00000000000000
PRIMCOORD
 2 1
 103     0.00000000000000     0.00000000000000     0.00000000000000
 103     1.84615500553065     1.84615500553065     1.84615500553065
