CRYSTAL
PRIMVEC
 0.00000000000000 3.58446809380324 3.58446809380324
 3.58446809380324 0.00000000000000 3.58446809380324
 3.58446809380324 3.58446809380324 0.00000000000000
PRIMCOORD
 2 1
 71     0.00000000000000     0.00000000000000     0.00000000000000
 71     1.79223404690162     1.79223404690162     1.79223404690162
