CRYSTAL
PRIMVEC
 0.00000000000000 3.58446808239494 3.58446808239494
 3.58446808239494 0.00000000000000 3.58446808239494
 3.58446808239494 3.58446808239494 0.00000000000000
PRIMCOORD
 2 1
 71     0.00000000000000     0.00000000000000     0.00000000000000
 71     1.79223404119747     1.79223404119747     1.79223404119747
