CRYSTAL
PRIMVEC
 0.00000000000000 4.04902551763989 4.04902551763989
 4.04902551763989 0.00000000000000 4.04902551763989
 4.04902551763989 4.04902551763989 0.00000000000000
PRIMCOORD
 2 1
 101     0.00000000000000     0.00000000000000     0.00000000000000
 101     2.02451275881994     2.02451275881994     2.02451275881994
