CRYSTAL
PRIMVEC
 0.00000000000000 4.04902331265467 4.04902331265467
 4.04902331265467 0.00000000000000 4.04902331265467
 4.04902331265467 4.04902331265467 0.00000000000000
PRIMCOORD
 2 1
 101     0.00000000000000     0.00000000000000     0.00000000000000
 101     2.02451165632734     2.02451165632734     2.02451165632734
