CRYSTAL
PRIMVEC
 0.00000000000000 3.38779261650776 3.38779261650776
 3.38779261650776 0.00000000000000 3.38779261650776
 3.38779261650776 3.38779261650776 0.00000000000000
PRIMCOORD
 2 1
 12     0.00000000000000     0.00000000000000     0.00000000000000
 12     1.69389630825388     1.69389630825388     1.69389630825388
