CRYSTAL
PRIMVEC
 0.00000000000000 2.44104121150637 2.44104121150637
 2.44104121150637 0.00000000000000 2.44104121150637
 2.44104121150637 2.44104121150637 0.00000000000000
PRIMCOORD
 2 1
 25     0.00000000000000     0.00000000000000     0.00000000000000
 25     1.22052060575318     1.22052060575318     1.22052060575318
