CRYSTAL
PRIMVEC
 0.00000000000000 2.44104121340749 2.44104121340749
 2.44104121340749 0.00000000000000 2.44104121340749
 2.44104121340749 2.44104121340749 0.00000000000000
PRIMCOORD
 2 1
 25     0.00000000000000     0.00000000000000     0.00000000000000
 25     1.22052060670375     1.22052060670375     1.22052060670375
