CRYSTAL
PRIMVEC
 0.00000000000000 2.80561385698485 2.80561385698485
 2.80561385698485 0.00000000000000 2.80561385698485
 2.80561385698485 2.80561385698485 0.00000000000000
PRIMCOORD
 2 1
 42     0.00000000000000     0.00000000000000     0.00000000000000
 42     1.40280692849242     1.40280692849242     1.40280692849242
