CRYSTAL
PRIMVEC
 0.00000000000000 2.06455054888322 2.06455054888322
 2.06455054888322 0.00000000000000 2.06455054888322
 2.06455054888322 2.06455054888322 0.00000000000000
PRIMCOORD
 2 1
  7     0.00000000000000     0.00000000000000     0.00000000000000
  7     1.03227527444161     1.03227527444161     1.03227527444161
