CRYSTAL
PRIMVEC
 0.00000000000000 2.06455053998771 2.06455053998771
 2.06455053998771 0.00000000000000 2.06455053998771
 2.06455053998771 2.06455053998771 0.00000000000000
PRIMCOORD
 2 1
  7     0.00000000000000     0.00000000000000     0.00000000000000
  7     1.03227526999386     1.03227526999386     1.03227526999386
