CRYSTAL
PRIMVEC
 0.00000000000000 3.74502144112404 3.74502144112404
 3.74502144112404 0.00000000000000 3.74502144112404
 3.74502144112404 3.74502144112404 0.00000000000000
PRIMCOORD
 2 1
 11     0.00000000000000     0.00000000000000     0.00000000000000
 11     1.87251072056202     1.87251072056202     1.87251072056202
