CRYSTAL
PRIMVEC
 0.00000000000000 3.74502144096701 3.74502144096701
 3.74502144096701 0.00000000000000 3.74502144096701
 3.74502144096701 3.74502144096701 0.00000000000000
PRIMCOORD
 2 1
 11     0.00000000000000     0.00000000000000     0.00000000000000
 11     1.87251072048351     1.87251072048351     1.87251072048351
