CRYSTAL
PRIMVEC
 0.00000000000000 2.90410071028542 2.90410071028542
 2.90410071028542 0.00000000000000 2.90410071028542
 2.90410071028542 2.90410071028542 0.00000000000000
PRIMCOORD
 2 1
 41     0.00000000000000     0.00000000000000     0.00000000000000
 41     1.45205035514271     1.45205035514271     1.45205035514271
