CRYSTAL
PRIMVEC
 0.00000000000000 2.82188389101332 2.82188389101332
 2.82188389101332 0.00000000000000 2.82188389101332
 2.82188389101332 2.82188389101332 0.00000000000000
PRIMCOORD
 2 1
 60     0.00000000000000     0.00000000000000     0.00000000000000
 60     1.41094194550666     1.41094194550666     1.41094194550666
