CRYSTAL
PRIMVEC
 0.00000000000000 2.82188389218148 2.82188389218148
 2.82188389218148 0.00000000000000 2.82188389218148
 2.82188389218148 2.82188389218148 0.00000000000000
PRIMCOORD
 2 1
 60     0.00000000000000     0.00000000000000     0.00000000000000
 60     1.41094194609074     1.41094194609074     1.41094194609074
