CRYSTAL
PRIMVEC
 0.00000000000000 3.62166679073418 3.62166679073418
 3.62166679073418 0.00000000000000 3.62166679073418
 3.62166679073418 3.62166679073418 0.00000000000000
PRIMCOORD
 2 1
 10     0.00000000000000     0.00000000000000     0.00000000000000
 10     1.81083339536709     1.81083339536709     1.81083339536709
