CRYSTAL
PRIMVEC
 0.00000000000000 3.62166659325507 3.62166659325507
 3.62166659325507 0.00000000000000 3.62166659325507
 3.62166659325507 3.62166659325507 0.00000000000000
PRIMCOORD
 2 1
 10     0.00000000000000     0.00000000000000     0.00000000000000
 10     1.81083329662753     1.81083329662753     1.81083329662753
