CRYSTAL
PRIMVEC
 0.00000000000000 2.49943188830084 2.49943188830084
 2.49943188830084 0.00000000000000 2.49943188830084
 2.49943188830084 2.49943188830084 0.00000000000000
PRIMCOORD
 2 1
 28     0.00000000000000     0.00000000000000     0.00000000000000
 28     1.24971594415042     1.24971594415042     1.24971594415042
