CRYSTAL
PRIMVEC
 0.00000000000000 2.49943190476768 2.49943190476768
 2.49943190476768 0.00000000000000 2.49943190476768
 2.49943190476768 2.49943190476768 0.00000000000000
PRIMCOORD
 2 1
 28     0.00000000000000     0.00000000000000     0.00000000000000
 28     1.24971595238384     1.24971595238384     1.24971595238384
