CRYSTAL
PRIMVEC
 0.00000000000000 4.49133112828202 4.49133112828202
 4.49133112828202 0.00000000000000 4.49133112828202
 4.49133112828202 4.49133112828202 0.00000000000000
PRIMCOORD
 2 1
 102     0.00000000000000     0.00000000000000     0.00000000000000
 102     2.24566556414101     2.24566556414101     2.24566556414101
