CRYSTAL
PRIMVEC
 0.00000000000000 4.49133101492081 4.49133101492081
 4.49133101492081 0.00000000000000 4.49133101492081
 4.49133101492081 4.49133101492081 0.00000000000000
PRIMCOORD
 2 1
 102     0.00000000000000     0.00000000000000     0.00000000000000
 102     2.24566550746041     2.24566550746041     2.24566550746041
