CRYSTAL
PRIMVEC
 0.00000000000000 2.74871141112191 2.74871141112191
 2.74871141112191 0.00000000000000 2.74871141112191
 2.74871141112191 2.74871141112191 0.00000000000000
PRIMCOORD
 2 1
 93     0.00000000000000     0.00000000000000     0.00000000000000
 93     1.37435570556095     1.37435570556095     1.37435570556095
