CRYSTAL
PRIMVEC
 0.00000000000000 2.74871131885731 2.74871131885731
 2.74871131885731 0.00000000000000 2.74871131885731
 2.74871131885731 2.74871131885731 0.00000000000000
PRIMCOORD
 2 1
 93     0.00000000000000     0.00000000000000     0.00000000000000
 93     1.37435565942866     1.37435565942866     1.37435565942866
