CRYSTAL
PRIMVEC
 0.00000000000000 2.16952125712177 2.16952125712177
 2.16952125712177 0.00000000000000 2.16952125712177
 2.16952125712177 2.16952125712177 0.00000000000000
PRIMCOORD
 2 1
  8     0.00000000000000     0.00000000000000     0.00000000000000
  8     1.08476062856088     1.08476062856088     1.08476062856088
