CRYSTAL
PRIMVEC
 0.00000000000000 2.75108450423386 2.75108450423386
 2.75108450423386 0.00000000000000 2.75108450423386
 2.75108450423386 2.75108450423386 0.00000000000000
PRIMCOORD
 2 1
 76     0.00000000000000     0.00000000000000     0.00000000000000
 76     1.37554225211693     1.37554225211693     1.37554225211693
