CRYSTAL
PRIMVEC
 0.00000000000000 2.68945650172905 2.68945650172905
 2.68945650172905 0.00000000000000 2.68945650172905
 2.68945650172905 2.68945650172905 0.00000000000000
PRIMCOORD
 2 1
 15     0.00000000000000     0.00000000000000     0.00000000000000
 15     1.34472825086452     1.34472825086452     1.34472825086452
