CRYSTAL
PRIMVEC
 0.00000000000000 3.07504128184468 3.07504128184468
 3.07504128184468 0.00000000000000 3.07504128184468
 3.07504128184468 3.07504128184468 0.00000000000000
PRIMCOORD
 2 1
 91     0.00000000000000     0.00000000000000     0.00000000000000
 91     1.53752064092234     1.53752064092234     1.53752064092234
