CRYSTAL
PRIMVEC
 0.00000000000000 3.07504151429589 3.07504151429589
 3.07504151429589 0.00000000000000 3.07504151429589
 3.07504151429589 3.07504151429589 0.00000000000000
PRIMCOORD
 2 1
 91     0.00000000000000     0.00000000000000     0.00000000000000
 91     1.53752075714795     1.53752075714795     1.53752075714795
