CRYSTAL
PRIMVEC
 0.00000000000000 3.45663748430459 3.45663748430459
 3.45663748430459 0.00000000000000 3.45663748430459
 3.45663748430459 3.45663748430459 0.00000000000000
PRIMCOORD
 2 1
 82     0.00000000000000     0.00000000000000     0.00000000000000
 82     1.72831874215229     1.72831874215229     1.72831874215229
