CRYSTAL
PRIMVEC
 0.00000000000000 2.84291067770769 2.84291067770769
 2.84291067770769 0.00000000000000 2.84291067770769
 2.84291067770769 2.84291067770769 0.00000000000000
PRIMCOORD
 2 1
 46     0.00000000000000     0.00000000000000     0.00000000000000
 46     1.42145533885385     1.42145533885385     1.42145533885385
