CRYSTAL
PRIMVEC
 0.00000000000000 2.84291067679254 2.84291067679254
 2.84291067679254 0.00000000000000 2.84291067679254
 2.84291067679254 2.84291067679254 0.00000000000000
PRIMCOORD
 2 1
 46     0.00000000000000     0.00000000000000     0.00000000000000
 46     1.42145533839627     1.42145533839627     1.42145533839627
