CRYSTAL
PRIMVEC
 0.00000000000000 2.74193532089324 2.74193532089324
 2.74193532089324 0.00000000000000 2.74193532089324
 2.74193532089324 2.74193532089324 0.00000000000000
PRIMCOORD
 2 1
 61     0.00000000000000     0.00000000000000     0.00000000000000
 61     1.37096766044662     1.37096766044662     1.37096766044662
