CRYSTAL
PRIMVEC
 0.00000000000000 3.68082166309917 3.68082166309917
 3.68082166309917 0.00000000000000 3.68082166309917
 3.68082166309917 3.68082166309917 0.00000000000000
PRIMCOORD
 2 1
 84     0.00000000000000     0.00000000000000     0.00000000000000
 84     1.84041083154959     1.84041083154959     1.84041083154959
