CRYSTAL
PRIMVEC
 0.00000000000000 3.68082163739896 3.68082163739896
 3.68082163739896 0.00000000000000 3.68082163739896
 3.68082163739896 3.68082163739896 0.00000000000000
PRIMCOORD
 2 1
 84     0.00000000000000     0.00000000000000     0.00000000000000
 84     1.84041081869948     1.84041081869948     1.84041081869948
