CRYSTAL
PRIMVEC
 0.00000000000000 2.92604814945795 2.92604814945795
 2.92604814945795 0.00000000000000 2.92604814945795
 2.92604814945795 2.92604814945795 0.00000000000000
PRIMCOORD
 2 1
 59     0.00000000000000     0.00000000000000     0.00000000000000
 59     1.46302407472897     1.46302407472897     1.46302407472897
