CRYSTAL
PRIMVEC
 0.00000000000000 2.84528586132722 2.84528586132722
 2.84528586132722 0.00000000000000 2.84528586132722
 2.84528586132722 2.84528586132722 0.00000000000000
PRIMCOORD
 2 1
 78     0.00000000000000     0.00000000000000     0.00000000000000
 78     1.42264293066361     1.42264293066361     1.42264293066361
