CRYSTAL
PRIMVEC
 0.00000000000000 2.84528586522460 2.84528586522460
 2.84528586522460 0.00000000000000 2.84528586522460
 2.84528586522460 2.84528586522460 0.00000000000000
PRIMCOORD
 2 1
 78     0.00000000000000     0.00000000000000     0.00000000000000
 78     1.42264293261230     1.42264293261230     1.42264293261230
