CRYSTAL
PRIMVEC
 0.00000000000000 2.68977919628533 2.68977919628533
 2.68977919628533 0.00000000000000 2.68977919628533
 2.68977919628533 2.68977919628533 0.00000000000000
PRIMCOORD
 2 1
 94     0.00000000000000     0.00000000000000     0.00000000000000
 94     1.34488959814267     1.34488959814267     1.34488959814267
