CRYSTAL
PRIMVEC
 0.00000000000000 2.68977911700822 2.68977911700822
 2.68977911700822 0.00000000000000 2.68977911700822
 2.68977911700822 2.68977911700822 0.00000000000000
PRIMCOORD
 2 1
 94     0.00000000000000     0.00000000000000     0.00000000000000
 94     1.34488955850411     1.34488955850411     1.34488955850411
