CRYSTAL
PRIMVEC
 0.00000000000000 5.29248917938849 5.29248917938849
 5.29248917938849 0.00000000000000 5.29248917938849
 5.29248917938849 5.29248917938849 0.00000000000000
PRIMCOORD
 2 1
 88     0.00000000000000     0.00000000000000     0.00000000000000
 88     2.64624458969425     2.64624458969425     2.64624458969425
