CRYSTAL
PRIMVEC
 0.00000000000000 5.29248949928174 5.29248949928174
 5.29248949928174 0.00000000000000 5.29248949928174
 5.29248949928174 5.29248949928174 0.00000000000000
PRIMCOORD
 2 1
 88     0.00000000000000     0.00000000000000     0.00000000000000
 88     2.64624474964087     2.64624474964087     2.64624474964087
