CRYSTAL
PRIMVEC
 0.00000000000000 5.07715761126529 5.07715761126529
 5.07715761126529 0.00000000000000 5.07715761126529
 5.07715761126529 5.07715761126529 0.00000000000000
PRIMCOORD
 2 1
 37     0.00000000000000     0.00000000000000     0.00000000000000
 37     2.53857880563265     2.53857880563265     2.53857880563265
