CRYSTAL
PRIMVEC
 0.00000000000000 5.07715757801959 5.07715757801959
 5.07715757801959 0.00000000000000 5.07715757801959
 5.07715757801959 5.07715757801959 0.00000000000000
PRIMCOORD
 2 1
 37     0.00000000000000     0.00000000000000     0.00000000000000
 37     2.53857878900980     2.53857878900980     2.53857878900980
