CRYSTAL
PRIMVEC
 0.00000000000000 2.79731195227780 2.79731195227780
 2.79731195227780 0.00000000000000 2.79731195227780
 2.79731195227780 2.79731195227780 0.00000000000000
PRIMCOORD
 2 1
 75     0.00000000000000     0.00000000000000     0.00000000000000
 75     1.39865597613890     1.39865597613890     1.39865597613890
