CRYSTAL
PRIMVEC
 0.00000000000000 2.71679141738343 2.71679141738343
 2.71679141738343 0.00000000000000 2.71679141738343
 2.71679141738343 2.71679141738343 0.00000000000000
PRIMCOORD
 2 1
 45     0.00000000000000     0.00000000000000     0.00000000000000
 45     1.35839570869172     1.35839570869172     1.35839570869172
