CRYSTAL
PRIMVEC
 0.00000000000000 2.71679142343665 2.71679142343665
 2.71679142343665 0.00000000000000 2.71679142343665
 2.71679142343665 2.71679142343665 0.00000000000000
PRIMCOORD
 2 1
 45     0.00000000000000     0.00000000000000     0.00000000000000
 45     1.35839571171833     1.35839571171833     1.35839571171833
