CRYSTAL
PRIMVEC
 0.00000000000000 5.24607808819968 5.24607808819968
 5.24607808819968 0.00000000000000 5.24607808819968
 5.24607808819968 5.24607808819968 0.00000000000000
PRIMCOORD
 2 1
 86     0.00000000000000     0.00000000000000     0.00000000000000
 86     2.62303904409984     2.62303904409984     2.62303904409984
