CRYSTAL
PRIMVEC
 0.00000000000000 5.24607812732361 5.24607812732361
 5.24607812732361 0.00000000000000 5.24607812732361
 5.24607812732361 5.24607812732361 0.00000000000000
PRIMCOORD
 2 1
 86     0.00000000000000     0.00000000000000     0.00000000000000
 86     2.62303906366181     2.62303906366181     2.62303906366181
