CRYSTAL
PRIMVEC
 0.00000000000000 2.69565397839236 2.69565397839236
 2.69565397839236 0.00000000000000 2.69565397839236
 2.69565397839236 2.69565397839236 0.00000000000000
PRIMCOORD
 2 1
 44     0.00000000000000     0.00000000000000     0.00000000000000
 44     1.34782698919618     1.34782698919618     1.34782698919618
