CRYSTAL
PRIMVEC
 0.00000000000000 2.69565398318450 2.69565398318450
 2.69565398318450 0.00000000000000 2.69565398318450
 2.69565398318450 2.69565398318450 0.00000000000000
PRIMCOORD
 2 1
 44     0.00000000000000     0.00000000000000     0.00000000000000
 44     1.34782699159225     1.34782699159225     1.34782699159225
