CRYSTAL
PRIMVEC
 0.00000000000000 2.84082482461788 2.84082482461788
 2.84082482461788 0.00000000000000 2.84082482461788
 2.84082482461788 2.84082482461788 0.00000000000000
PRIMCOORD
 2 1
 16     0.00000000000000     0.00000000000000     0.00000000000000
 16     1.42041241230894     1.42041241230894     1.42041241230894
