CRYSTAL
PRIMVEC
 0.00000000000000 2.84082482574897 2.84082482574897
 2.84082482574897 0.00000000000000 2.84082482574897
 2.84082482574897 2.84082482574897 0.00000000000000
PRIMCOORD
 2 1
 16     0.00000000000000     0.00000000000000     0.00000000000000
 16     1.42041241287448     1.42041241287448     1.42041241287448
