CRYSTAL
PRIMVEC
 0.00000000000000 3.43590889742103 3.43590889742103
 3.43590889742103 0.00000000000000 3.43590889742103
 3.43590889742103 3.43590889742103 0.00000000000000
PRIMCOORD
 2 1
 51     0.00000000000000     0.00000000000000     0.00000000000000
 51     1.71795444871052     1.71795444871052     1.71795444871052
