CRYSTAL
PRIMVEC
 0.00000000000000 3.43590887948858 3.43590887948858
 3.43590887948858 0.00000000000000 3.43590887948858
 3.43590887948858 3.43590887948858 0.00000000000000
PRIMCOORD
 2 1
 51     0.00000000000000     0.00000000000000     0.00000000000000
 51     1.71795443974429     1.71795443974429     1.71795443974429
