CRYSTAL
PRIMVEC
 0.00000000000000 3.13063533440188 3.13063533440188
 3.13063533440188 0.00000000000000 3.13063533440188
 3.13063533440188 3.13063533440188 0.00000000000000
PRIMCOORD
 2 1
 21     0.00000000000000     0.00000000000000     0.00000000000000
 21     1.56531766720094     1.56531766720094     1.56531766720094
