CRYSTAL
PRIMVEC
 0.00000000000000 3.13063525874572 3.13063525874572
 3.13063525874572 0.00000000000000 3.13063525874572
 3.13063525874572 3.13063525874572 0.00000000000000
PRIMCOORD
 2 1
 21     0.00000000000000     0.00000000000000     0.00000000000000
 21     1.56531762937286     1.56531762937286     1.56531762937286
