CRYSTAL
PRIMVEC
 0.00000000000000 3.11137242182564 3.11137242182564
 3.11137242182564 0.00000000000000 3.11137242182564
 3.11137242182564 3.11137242182564 0.00000000000000
PRIMCOORD
 2 1
 34     0.00000000000000     0.00000000000000     0.00000000000000
 34     1.55568621091282     1.55568621091282     1.55568621091282
