CRYSTAL
PRIMVEC
 0.00000000000000 3.11137242278242 3.11137242278242
 3.11137242278242 0.00000000000000 3.11137242278242
 3.11137242278242 3.11137242278242 0.00000000000000
PRIMCOORD
 2 1
 34     0.00000000000000     0.00000000000000     0.00000000000000
 34     1.55568621139121     1.55568621139121     1.55568621139121
