CRYSTAL
PRIMVEC
 0.00000000000000 2.71640458447908 2.71640458447908
 2.71640458447908 0.00000000000000 2.71640458447908
 2.71640458447908 2.71640458447908 0.00000000000000
PRIMCOORD
 2 1
 14     0.00000000000000     0.00000000000000     0.00000000000000
 14     1.35820229223954     1.35820229223954     1.35820229223954
