CRYSTAL
PRIMVEC
 0.00000000000000 2.71640457818987 2.71640457818987
 2.71640457818987 0.00000000000000 2.71640457818987
 2.71640457818987 2.71640457818987 0.00000000000000
PRIMCOORD
 2 1
 14     0.00000000000000     0.00000000000000     0.00000000000000
 14     1.35820228909493     1.35820228909493     1.35820228909493
