CRYSTAL
PRIMVEC
 0.00000000000000 2.70635270722963 2.70635270722963
 2.70635270722963 0.00000000000000 2.70635270722963
 2.70635270722963 2.70635270722963 0.00000000000000
PRIMCOORD
 2 1
 62     0.00000000000000     0.00000000000000     0.00000000000000
 62     1.35317635361482     1.35317635361482     1.35317635361482
