CRYSTAL
PRIMVEC
 0.00000000000000 2.70635268718954 2.70635268718954
 2.70635268718954 0.00000000000000 2.70635268718954
 2.70635268718954 2.70635268718954 0.00000000000000
PRIMCOORD
 2 1
 62     0.00000000000000     0.00000000000000     0.00000000000000
 62     1.35317634359477     1.35317634359477     1.35317634359477
