CRYSTAL
PRIMVEC
 0.00000000000000 3.27011463323849 3.27011463323849
 3.27011463323849 0.00000000000000 3.27011463323849
 3.27011463323849 3.27011463323849 0.00000000000000
PRIMCOORD
 2 1
 50     0.00000000000000     0.00000000000000     0.00000000000000
 50     1.63505731661924     1.63505731661924     1.63505731661924
