CRYSTAL
PRIMVEC
 0.00000000000000 3.27011463897089 3.27011463897089
 3.27011463897089 0.00000000000000 3.27011463897089
 3.27011463897089 3.27011463897089 0.00000000000000
PRIMCOORD
 2 1
 50     0.00000000000000     0.00000000000000     0.00000000000000
 50     1.63505731948544     1.63505731948544     1.63505731948544
