CRYSTAL
PRIMVEC
 0.00000000000000 4.69625185561475 4.69625185561475
 4.69625185561475 0.00000000000000 4.69625185561475
 4.69625185561475 4.69625185561475 0.00000000000000
PRIMCOORD
 2 1
 38     0.00000000000000     0.00000000000000     0.00000000000000
 38     2.34812592780737     2.34812592780737     2.34812592780737
