CRYSTAL
PRIMVEC
 0.00000000000000 4.69625182002780 4.69625182002780
 4.69625182002780 0.00000000000000 4.69625182002780
 4.69625182002780 4.69625182002780 0.00000000000000
PRIMCOORD
 2 1
 38     0.00000000000000     0.00000000000000     0.00000000000000
 38     2.34812591001390     2.34812591001390     2.34812591001390
