CRYSTAL
PRIMVEC
 0.00000000000000 3.00024455940229 3.00024455940229
 3.00024455940229 0.00000000000000 3.00024455940229
 3.00024455940229 3.00024455940229 0.00000000000000
PRIMCOORD
 2 1
 73     0.00000000000000     0.00000000000000     0.00000000000000
 73     1.50012227970115     1.50012227970115     1.50012227970115
