CRYSTAL
PRIMVEC
 0.00000000000000 3.00024456026487 3.00024456026487
 3.00024456026487 0.00000000000000 3.00024456026487
 3.00024456026487 3.00024456026487 0.00000000000000
PRIMCOORD
 2 1
 73     0.00000000000000     0.00000000000000     0.00000000000000
 73     1.50012228013243     1.50012228013243     1.50012228013243
