CRYSTAL
PRIMVEC
 0.00000000000000 2.71850290625992 2.71850290625992
 2.71850290625992 0.00000000000000 2.71850290625992
 2.71850290625992 2.71850290625992 0.00000000000000
PRIMCOORD
 2 1
 65     0.00000000000000     0.00000000000000     0.00000000000000
 65     1.35925145312996     1.35925145312996     1.35925145312996
