CRYSTAL
PRIMVEC
 0.00000000000000 2.73839579975459 2.73839579975459
 2.73839579975459 0.00000000000000 2.73839579975459
 2.73839579975459 2.73839579975459 0.00000000000000
PRIMCOORD
 2 1
 43     0.00000000000000     0.00000000000000     0.00000000000000
 43     1.36919789987729     1.36919789987729     1.36919789987729
