CRYSTAL
PRIMVEC
 0.00000000000000 2.73839580415801 2.73839580415801
 2.73839580415801 0.00000000000000 2.73839580415801
 2.73839580415801 2.73839580415801 0.00000000000000
PRIMCOORD
 2 1
 43     0.00000000000000     0.00000000000000     0.00000000000000
 43     1.36919790207901     1.36919790207901     1.36919790207901
