CRYSTAL
PRIMVEC
 0.00000000000000 3.53030287031900 3.53030287031900
 3.53030287031900 0.00000000000000 3.53030287031900
 3.53030287031900 3.53030287031900 0.00000000000000
PRIMCOORD
 2 1
 52     0.00000000000000     0.00000000000000     0.00000000000000
 52     1.76515143515950     1.76515143515950     1.76515143515950
