CRYSTAL
PRIMVEC
 0.00000000000000 3.53030286924764 3.53030286924764
 3.53030286924764 0.00000000000000 3.53030286924764
 3.53030286924764 3.53030286924764 0.00000000000000
PRIMCOORD
 2 1
 52     0.00000000000000     0.00000000000000     0.00000000000000
 52     1.76515143462382     1.76515143462382     1.76515143462382
