CRYSTAL
PRIMVEC
 0.00000000000000 3.49231461498082 3.49231461498082
 3.49231461498082 0.00000000000000 3.49231461498082
 3.49231461498082 3.49231461498082 0.00000000000000
PRIMCOORD
 2 1
 90     0.00000000000000     0.00000000000000     0.00000000000000
 90     1.74615730749041     1.74615730749041     1.74615730749041
