CRYSTAL
PRIMVEC
 0.00000000000000 3.49231485518690 3.49231485518690
 3.49231485518690 0.00000000000000 3.49231485518690
 3.49231485518690 3.49231485518690 0.00000000000000
PRIMCOORD
 2 1
 90     0.00000000000000     0.00000000000000     0.00000000000000
 90     1.74615742759345     1.74615742759345     1.74615742759345
