CRYSTAL
PRIMVEC
 0.00000000000000 2.75983321584937 2.75983321584937
 2.75983321584937 0.00000000000000 2.75983321584937
 2.75983321584937 2.75983321584937 0.00000000000000
PRIMCOORD
 2 1
 22     0.00000000000000     0.00000000000000     0.00000000000000
 22     1.37991660792469     1.37991660792469     1.37991660792469
