CRYSTAL
PRIMVEC
 0.00000000000000 3.43937448347500 3.43937448347500
 3.43937448347500 0.00000000000000 3.43937448347500
 3.43937448347500 3.43937448347500 0.00000000000000
PRIMCOORD
 2 1
 81     0.00000000000000     0.00000000000000     0.00000000000000
 81     1.71968724173750     1.71968724173750     1.71968724173750
