CRYSTAL
PRIMVEC
 0.00000000000000 3.43937445512412 3.43937445512412
 3.43937445512412 0.00000000000000 3.43937445512412
 3.43937445512412 3.43937445512412 0.00000000000000
PRIMCOORD
 2 1
 81     0.00000000000000     0.00000000000000     0.00000000000000
 81     1.71968722756206     1.71968722756206     1.71968722756206
