CRYSTAL
PRIMVEC
 0.00000000000000 4.12549331033700 4.12549331033700
 4.12549331033700 0.00000000000000 4.12549331033700
 4.12549331033700 4.12549331033700 0.00000000000000
PRIMCOORD
 2 1
 69     0.00000000000000     0.00000000000000     0.00000000000000
 69     2.06274665516850     2.06274665516850     2.06274665516850
