CRYSTAL
PRIMVEC
 0.00000000000000 4.12549337714279 4.12549337714279
 4.12549337714279 0.00000000000000 4.12549337714279
 4.12549337714279 4.12549337714279 0.00000000000000
PRIMCOORD
 2 1
 69     0.00000000000000     0.00000000000000     0.00000000000000
 69     2.06274668857139     2.06274668857139     2.06274668857139
