CRYSTAL
PRIMVEC
 0.00000000000000 2.88091812575147 2.88091812575147
 2.88091812575147 0.00000000000000 2.88091812575147
 2.88091812575147 2.88091812575147 0.00000000000000
PRIMCOORD
 2 1
 92     0.00000000000000     0.00000000000000     0.00000000000000
 92     1.44045906287574     1.44045906287574     1.44045906287574
