CRYSTAL
PRIMVEC
 0.00000000000000 2.88091826735904 2.88091826735904
 2.88091826735904 0.00000000000000 2.88091826735904
 2.88091826735904 2.88091826735904 0.00000000000000
PRIMCOORD
 2 1
 92     0.00000000000000     0.00000000000000     0.00000000000000
 92     1.44045913367952     1.44045913367952     1.44045913367952
