CRYSTAL
PRIMVEC
 0.00000000000000 2.59355569365375 2.59355569365375
 2.59355569365375 0.00000000000000 2.59355569365375
 2.59355569365375 2.59355569365375 0.00000000000000
PRIMCOORD
 2 1
 23     0.00000000000000     0.00000000000000     0.00000000000000
 23     1.29677784682687     1.29677784682687     1.29677784682687
