CRYSTAL
PRIMVEC
 0.00000000000000 2.87811798873974 2.87811798873974
 2.87811798873974 0.00000000000000 2.87811798873974
 2.87811798873974 2.87811798873974 0.00000000000000
PRIMCOORD
 2 1
 74     0.00000000000000     0.00000000000000     0.00000000000000
 74     1.43905899436987     1.43905899436987     1.43905899436987
