CRYSTAL
PRIMVEC
 0.00000000000000 5.22097542261770 5.22097542261770
 5.22097542261770 0.00000000000000 5.22097542261770
 5.22097542261770 5.22097542261770 0.00000000000000
PRIMCOORD
 2 1
 54     0.00000000000000     0.00000000000000     0.00000000000000
 54     2.61048771130885     2.61048771130885     2.61048771130885
