CRYSTAL
PRIMVEC
 0.00000000000000 3.41340784389005 3.41340784389005
 3.41340784389005 0.00000000000000 3.41340784389005
 3.41340784389005 3.41340784389005 0.00000000000000
PRIMCOORD
 2 1
 39     0.00000000000000     0.00000000000000     0.00000000000000
 39     1.70670392194503     1.70670392194503     1.70670392194503
