CRYSTAL
PRIMVEC
 0.00000000000000 3.41340775110405 3.41340775110405
 3.41340775110405 0.00000000000000 3.41340775110405
 3.41340775110405 3.41340775110405 0.00000000000000
PRIMCOORD
 2 1
 39     0.00000000000000     0.00000000000000     0.00000000000000
 39     1.70670387555203     1.70670387555203     1.70670387555203
