CRYSTAL
PRIMVEC
 0.00000000000000 4.17998424025083 4.17998424025083
 4.17998424025083 0.00000000000000 4.17998424025083
 4.17998424025083 4.17998424025083 0.00000000000000
PRIMCOORD
 2 1
 70     0.00000000000000     0.00000000000000     0.00000000000000
 70     2.08999212012541     2.08999212012541     2.08999212012541
