CRYSTAL
PRIMVEC
 0.00000000000000 4.17998421548794 4.17998421548794
 4.17998421548794 0.00000000000000 4.17998421548794
 4.17998421548794 4.17998421548794 0.00000000000000
PRIMCOORD
 2 1
 70     0.00000000000000     0.00000000000000     0.00000000000000
 70     2.08999210774397     2.08999210774397     2.08999210774397
