CRYSTAL
PRIMVEC
 0.00000000000000 2.82784291083152 2.82784291083152
 2.82784291083152 0.00000000000000 2.82784291083152
 2.82784291083152 2.82784291083152 0.00000000000000
PRIMCOORD
 2 1
 30     0.00000000000000     0.00000000000000     0.00000000000000
 30     1.41392145541576     1.41392145541576     1.41392145541576
