CRYSTAL
PRIMVEC
 0.00000000000000 2.82784292088258 2.82784292088258
 2.82784292088258 0.00000000000000 2.82784292088258
 2.82784292088258 2.82784292088258 0.00000000000000
PRIMCOORD
 2 1
 30     0.00000000000000     0.00000000000000     0.00000000000000
 30     1.41392146044129     1.41392146044129     1.41392146044129
