CRYSTAL
PRIMVEC
 0.00000000000000 3.06968730734197 3.06968730734197
 3.06968730734197 0.00000000000000 3.06968730734197
 3.06968730734197 3.06968730734197 0.00000000000000
PRIMCOORD
 2 1
 40     0.00000000000000     0.00000000000000     0.00000000000000
 40     1.53484365367098     1.53484365367098     1.53484365367098
