CRYSTAL
PRIMVEC
 0.00000000000000 3.06968731365000 3.06968731365000
 3.06968731365000 0.00000000000000 3.06968731365000
 3.06968731365000 3.06968731365000 0.00000000000000
PRIMCOORD
 2 1
 40     0.00000000000000     0.00000000000000     0.00000000000000
 40     1.53484365682500     1.53484365682500     1.53484365682500
