CRYSTAL
# Primitive lattice vectors in Angstrom
PRIMVEC
 4.06547701867216 0.00000000000000 0.00000000000000
 -0.00000000000000 4.06547701867216 0.00000000000000
 0.00000000000000 0.00000000000000 4.06547701867216
# Cartesian coordinates in Angstrom.
PRIMCOORD
 4 1
Bk     0.00000000000000     0.00000000000000     0.00000000000000
O     2.03273850933608     0.00000000000000     0.00000000000000
O     0.00000000000000     2.03273850933608     0.00000000000000
O     0.00000000000000     0.00000000000000     2.03273850933608