CRYSTAL
# Primitive lattice vectors in Angstrom
PRIMVEC
 5.31475387914659 0.00000000000000 0.00000000000000
 -0.00000000000000 5.31475387914659 0.00000000000000
 0.00000000000000 0.00000000000000 5.31475387914659
# Cartesian coordinates in Angstrom.
PRIMCOORD
 14 1
Bk     0.00000000000000     0.00000000000000     0.00000000000000
Bk     2.65737693957330     2.65737693957330     0.00000000000000
Bk     2.65737693957330     0.00000000000000     2.65737693957330
Bk     0.00000000000000     2.65737693957330     2.65737693957330
O     2.65737693957330     0.00000000000000     0.00000000000000
O     0.00000000000000     2.65737693957330     0.00000000000000
O     0.00000000000000     0.00000000000000     2.65737693957330
O     2.65737693957330     2.65737693957330     2.65737693957330
O     3.98606540935994     3.98606540935994     1.32868846978665
O     3.98606540935994     1.32868846978665     3.98606540935994
O     1.32868846978665     3.98606540935994     3.98606540935994
O     3.98606540935994     1.32868846978665     1.32868846978665
O     1.32868846978665     3.98606540935994     1.32868846978665
O     1.32868846978665     1.32868846978665     3.98606540935994