CRYSTAL
# Primitive lattice vectors in Angstrom
PRIMVEC
 3.22489612773154 0.00000000000000 1.86189464745439
 1.07496537591051 3.04046122738829 1.86189464745439
 0.00000000000000 0.00000000000000 3.72378929490877
# Cartesian coordinates in Angstrom.
PRIMCOORD
 3 1
Bk     0.00000000000000     0.00000000000000     0.00000000000000
O     1.07496537591051     0.76011530684707     1.86189464745439
O     3.22489612773154     2.28034592054122     5.58568394236317