CRYSTAL
# Primitive lattice vectors in Angstrom
PRIMVEC
 5.25461561308319 0.00000000000000 0.00000000000000
 -0.00000000000000 5.25461561308319 0.00000000000000
 0.00000000000000 0.00000000000000 5.25461561308319
# Cartesian coordinates in Angstrom.
PRIMCOORD
 10 1
Bk     1.31365390327079     1.31365390327079     1.31365390327079
Bk     3.94096170981239     3.94096170981239     1.31365390327079
Bk     3.94096170981239     1.31365390327079     3.94096170981239
Bk     1.31365390327079     3.94096170981239     3.94096170981239
O     2.62730780654160     0.00000000000000     0.00000000000000
O     0.00000000000000     2.62730780654160     0.00000000000000
O     0.00000000000000     0.00000000000000     2.62730780654160
O     2.62730780654160     2.62730780654160     0.00000000000000
O     2.62730780654160     0.00000000000000     2.62730780654160
O     0.00000000000000     2.62730780654160     2.62730780654160