CRYSTAL
# Primitive lattice vectors in Angstrom
PRIMVEC
 3.50916893426227 0.00000000000000 2.02601962882820
 1.16972297808742 3.30847619966136 2.02601962882820
 0.00000000000000 0.00000000000000 4.05203925765639
# Cartesian coordinates in Angstrom.
PRIMCOORD
 3 1
Bk     1.16972297808742     0.82711904991534     2.02601962882820
Bk     3.50916893426227     2.48135714974602     6.07805888648459
O     0.00000000000000     0.00000000000000     0.00000000000000