CRYSTAL
# Primitive lattice vectors in Angstrom
PRIMVEC
 2.92427141475859 0.00000000000000 1.68832888849440
 0.97475713825286 2.75702952987437 1.68832888849440
 0.00000000000000 0.00000000000000 3.37665777698880
# Cartesian coordinates in Angstrom.
PRIMCOORD
 2 1
Bk     0.00000000000000     0.00000000000000     0.00000000000000
O     1.94951427650573     1.37851476493718     3.37665777698880