CRYSTAL
# Primitive lattice vectors in Angstrom
PRIMVEC
 5.32994227476547 0.00000000000000 0.00000000000000
 -0.00000000000000 5.32994227476547 0.00000000000000
 0.00000000000000 0.00000000000000 5.32994227476547
# Cartesian coordinates in Angstrom.
PRIMCOORD
 14 1
Cf     0.00000000000000     0.00000000000000     0.00000000000000
Cf     2.66497113738274     2.66497113738274     0.00000000000000
Cf     2.66497113738274     0.00000000000000     2.66497113738274
Cf     0.00000000000000     2.66497113738274     2.66497113738274
O     2.66497113738274     0.00000000000000     0.00000000000000
O     0.00000000000000     2.66497113738274     0.00000000000000
O     0.00000000000000     0.00000000000000     2.66497113738274
O     2.66497113738274     2.66497113738274     2.66497113738274
O     3.99745670607411     3.99745670607411     1.33248556869137
O     3.99745670607411     1.33248556869137     3.99745670607411
O     1.33248556869137     3.99745670607411     3.99745670607411
O     3.99745670607411     1.33248556869137     1.33248556869137
O     1.33248556869137     3.99745670607411     1.33248556869137
O     1.33248556869137     1.33248556869137     3.99745670607411