CRYSTAL
# Primitive lattice vectors in Angstrom
PRIMVEC
 2.94597590952634 0.00000000000000 1.70085998439118
 0.98199196984211 2.77749272378437 1.70085998439118
 0.00000000000000 0.00000000000000 3.40171996878236
# Cartesian coordinates in Angstrom.
PRIMCOORD
 2 1
Cf     0.00000000000000     0.00000000000000     0.00000000000000
O     1.96398393968423     1.38874636189218     3.40171996878236