CRYSTAL
# Primitive lattice vectors in Angstrom
PRIMVEC
 5.26602790995624 0.00000000000000 0.00000000000000
 -0.00000000000000 5.26602790995624 0.00000000000000
 0.00000000000000 0.00000000000000 5.26602790995624
# Cartesian coordinates in Angstrom.
PRIMCOORD
 10 1
Cf     1.31650697748906     1.31650697748906     1.31650697748906
Cf     3.94952093246718     3.94952093246718     1.31650697748906
Cf     3.94952093246718     1.31650697748906     3.94952093246718
Cf     1.31650697748906     3.94952093246718     3.94952093246718
O     2.63301395497813     0.00000000000000     0.00000000000000
O     0.00000000000000     2.63301395497813     0.00000000000000
O     0.00000000000000     0.00000000000000     2.63301395497813
O     2.63301395497813     2.63301395497813     0.00000000000000
O     2.63301395497813     0.00000000000000     2.63301395497813
O     0.00000000000000     2.63301395497813     2.63301395497813