CRYSTAL
# Primitive lattice vectors in Angstrom
PRIMVEC
 3.22966065793363 0.00000000000000 1.86464545024913
 1.07655355264454 3.04495326954171 1.86464545024913
 0.00000000000000 0.00000000000000 3.72929090049825
# Cartesian coordinates in Angstrom.
PRIMCOORD
 3 1
Cf     0.00000000000000     0.00000000000000     0.00000000000000
O     1.07655355264454     0.76123831738543     1.86464545024913
O     3.22966065793363     2.28371495215628     5.59393635074739