CRYSTAL
# Primitive lattice vectors in Angstrom
PRIMVEC
 3.55225185768630 0.00000000000000 2.05089356626454
 1.18408395256210 3.34909516940333 2.05089356626454
 0.00000000000000 0.00000000000000 4.10178713252907
# Cartesian coordinates in Angstrom.
PRIMCOORD
 3 1
Cf     1.18408395256210     0.83727379235083     2.05089356626454
Cf     3.55225185768630     2.51182137705250     6.15268069879361
O     0.00000000000000     0.00000000000000     0.00000000000000