CRYSTAL
# Primitive lattice vectors in Angstrom
PRIMVEC
 5.30436924821417 0.00000000000000 0.00000000000000
 -0.00000000000000 5.30436924821417 0.00000000000000
 0.00000000000000 0.00000000000000 5.30436924821417
# Cartesian coordinates in Angstrom.
PRIMCOORD
 14 1
Cm     0.00000000000000     0.00000000000000     0.00000000000000
Cm     2.65218462410708     2.65218462410708     0.00000000000000
Cm     2.65218462410708     0.00000000000000     2.65218462410708
Cm     0.00000000000000     2.65218462410708     2.65218462410708
O     2.65218462410708     0.00000000000000     0.00000000000000
O     0.00000000000000     2.65218462410708     0.00000000000000
O     0.00000000000000     0.00000000000000     2.65218462410708
O     2.65218462410708     2.65218462410708     2.65218462410708
O     3.97827693616062     3.97827693616062     1.32609231205354
O     3.97827693616062     1.32609231205354     3.97827693616062
O     1.32609231205354     3.97827693616062     3.97827693616062
O     3.97827693616062     1.32609231205354     1.32609231205354
O     1.32609231205354     3.97827693616062     1.32609231205354
O     1.32609231205354     1.32609231205354     3.97827693616062