CRYSTAL
# Primitive lattice vectors in Angstrom
PRIMVEC
 3.47981123379349 0.00000000000000 2.00906995255975
 1.15993707793116 3.28079749421933 2.00906995255975
 0.00000000000000 0.00000000000000 4.01813990511951
# Cartesian coordinates in Angstrom.
PRIMCOORD
 3 1
Cm     1.15993707793116     0.82019937355483     2.00906995255975
Cm     3.47981123379349     2.46059812066450     6.02720985767926
O     0.00000000000000     0.00000000000000     0.00000000000000