CRYSTAL
# Primitive lattice vectors in Angstrom
PRIMVEC
 3.22910111064823 0.00000000000000 1.86432239547328
 1.07636703688274 3.04442572330184 1.86432239547328
 0.00000000000000 0.00000000000000 3.72864479094655
# Cartesian coordinates in Angstrom.
PRIMCOORD
 3 1
Cm     0.00000000000000     0.00000000000000     0.00000000000000
O     1.07636703688274     0.76110643082546     1.86432239547328
O     3.22910111064823     2.28331929247638     5.59296718641983