CRYSTAL
# Primitive lattice vectors in Angstrom
PRIMVEC
 2.90904064336897 0.00000000000000 1.67953539853263
 0.96968021445632 2.74266982089796 1.67953539853263
 0.00000000000000 0.00000000000000 3.35907079706527
# Cartesian coordinates in Angstrom.
PRIMCOORD
 2 1
Cm     0.00000000000000     0.00000000000000     0.00000000000000
O     1.93936042891264     1.37133491044898     3.35907079706527