CRYSTAL
# Primitive lattice vectors in Angstrom
PRIMVEC
 5.24865437482609 0.00000000000000 0.00000000000000
 -0.00000000000000 5.24865437482609 0.00000000000000
 0.00000000000000 0.00000000000000 5.24865437482609
# Cartesian coordinates in Angstrom.
PRIMCOORD
 10 1
Cm     1.31216359370652     1.31216359370652     1.31216359370652
Cm     3.93649078111957     3.93649078111957     1.31216359370652
Cm     3.93649078111957     1.31216359370652     3.93649078111957
Cm     1.31216359370652     3.93649078111957     3.93649078111957
O     2.62432718741305     0.00000000000000     0.00000000000000
O     0.00000000000000     2.62432718741305     0.00000000000000
O     0.00000000000000     0.00000000000000     2.62432718741305
O     2.62432718741305     2.62432718741305     0.00000000000000
O     2.62432718741305     0.00000000000000     2.62432718741305
O     0.00000000000000     2.62432718741305     2.62432718741305