CRYSTAL
# Primitive lattice vectors in Angstrom
PRIMVEC
 2.97247486542213 0.00000000000000 1.71615916371086
 0.99082495514071 2.80247617899541 1.71615916371086
 0.00000000000000 0.00000000000000 3.43231832742172
# Cartesian coordinates in Angstrom.
PRIMCOORD
 2 1
Es     0.00000000000000     0.00000000000000     0.00000000000000
O     1.98164991028142     1.40123808949770     3.43231832742172