CRYSTAL
# Primitive lattice vectors in Angstrom
PRIMVEC
 4.10265521295636 0.00000000000000 0.00000000000000
 -0.00000000000000 4.10265521295636 0.00000000000000
 0.00000000000000 0.00000000000000 4.10265521295636
# Cartesian coordinates in Angstrom.
PRIMCOORD
 4 1
Es     0.00000000000000     0.00000000000000     0.00000000000000
O     2.05132760647817     0.00000000000000     0.00000000000000
O     0.00000000000000     2.05132760647817     0.00000000000000
O     0.00000000000000     0.00000000000000     2.05132760647817