CRYSTAL
# Primitive lattice vectors in Angstrom
PRIMVEC
 5.28487167458017 0.00000000000000 0.00000000000000
 -0.00000000000000 5.28487167458017 0.00000000000000
 0.00000000000000 0.00000000000000 5.28487167458017
# Cartesian coordinates in Angstrom.
PRIMCOORD
 10 1
Es     1.32121791864504     1.32121791864504     1.32121791864504
Es     3.96365375593513     3.96365375593513     1.32121791864504
Es     3.96365375593513     1.32121791864504     3.96365375593513
Es     1.32121791864504     3.96365375593513     3.96365375593513
O     2.64243583729009     0.00000000000000     0.00000000000000
O     0.00000000000000     2.64243583729009     0.00000000000000
O     0.00000000000000     0.00000000000000     2.64243583729009
O     2.64243583729009     2.64243583729009     0.00000000000000
O     2.64243583729009     0.00000000000000     2.64243583729009
O     0.00000000000000     2.64243583729009     2.64243583729009