CRYSTAL
# Primitive lattice vectors in Angstrom
PRIMVEC
 3.60942073325727 0.00000000000000 2.08390003196470
 1.20314024441909 3.40299450218872 2.08390003196470
 0.00000000000000 0.00000000000000 4.16780006392941
# Cartesian coordinates in Angstrom.
PRIMCOORD
 3 1
Es     1.20314024441909     0.85074862554718     2.08390003196470
Es     3.60942073325727     2.55224587664154     6.25170009589411
O     0.00000000000000     0.00000000000000     0.00000000000000