CRYSTAL
# Primitive lattice vectors in Angstrom
PRIMVEC
 3.24386991541468 0.00000000000000 1.87284916888079
 1.08128997180489 3.05834988596900 1.87284916888079
 0.00000000000000 0.00000000000000 3.74569833776158
# Cartesian coordinates in Angstrom.
PRIMCOORD
 3 1
Es     0.00000000000000     0.00000000000000     0.00000000000000
O     1.08128997180489     0.76458747149225     1.87284916888079
O     3.24386991541468     2.29376241447675     5.61854750664238