CRYSTAL
# Primitive lattice vectors in Angstrom
PRIMVEC
 5.35611799068232 0.00000000000000 0.00000000000000
 -0.00000000000000 5.35611799068232 0.00000000000000
 0.00000000000000 0.00000000000000 5.35611799068232
# Cartesian coordinates in Angstrom.
PRIMCOORD
 14 1
Es     0.00000000000000     0.00000000000000     0.00000000000000
Es     2.67805899534116     2.67805899534116     0.00000000000000
Es     2.67805899534116     0.00000000000000     2.67805899534116
Es     0.00000000000000     2.67805899534116     2.67805899534116
O     2.67805899534116     0.00000000000000     0.00000000000000
O     0.00000000000000     2.67805899534116     0.00000000000000
O     0.00000000000000     0.00000000000000     2.67805899534116
O     2.67805899534116     2.67805899534116     2.67805899534116
O     4.01708849301174     4.01708849301174     1.33902949767058
O     4.01708849301174     1.33902949767058     4.01708849301174
O     1.33902949767058     4.01708849301174     4.01708849301174
O     4.01708849301174     1.33902949767058     1.33902949767058
O     1.33902949767058     4.01708849301174     1.33902949767058
O     1.33902949767058     1.33902949767058     4.01708849301174