CRYSTAL
# Primitive lattice vectors in Angstrom
PRIMVEC
 3.67664258626975 0.00000000000000 2.12271058689688
 1.22554752875658 3.46637187300078 2.12271058689688
 0.00000000000000 0.00000000000000 4.24542117379376
# Cartesian coordinates in Angstrom.
PRIMCOORD
 3 1
Fm     1.22554752875658     0.86659296825019     2.12271058689688
Fm     3.67664258626975     2.59977890475059     6.36813176069065
O     0.00000000000000     0.00000000000000     0.00000000000000