CRYSTAL
# Primitive lattice vectors in Angstrom
PRIMVEC
 5.32130314446826 0.00000000000000 0.00000000000000
 -0.00000000000000 5.32130314446826 0.00000000000000
 0.00000000000000 0.00000000000000 5.32130314446826
# Cartesian coordinates in Angstrom.
PRIMCOORD
 10 1
Fm     1.33032578611706     1.33032578611706     1.33032578611706
Fm     3.99097735835120     3.99097735835120     1.33032578611706
Fm     3.99097735835120     1.33032578611706     3.99097735835120
Fm     1.33032578611706     3.99097735835120     3.99097735835120
O     2.66065157223413     0.00000000000000     0.00000000000000
O     0.00000000000000     2.66065157223413     0.00000000000000
O     0.00000000000000     0.00000000000000     2.66065157223413
O     2.66065157223413     2.66065157223413     0.00000000000000
O     2.66065157223413     0.00000000000000     2.66065157223413
O     0.00000000000000     2.66065157223413     2.66065157223413