CRYSTAL
# Primitive lattice vectors in Angstrom
PRIMVEC
 3.00281537533421 0.00000000000000 1.73367626527595
 1.00093845844474 2.83108148606673 1.73367626527595
 0.00000000000000 0.00000000000000 3.46735253055190
# Cartesian coordinates in Angstrom.
PRIMCOORD
 2 1
Fm     0.00000000000000     0.00000000000000     0.00000000000000
O     2.00187691688947     1.41554074303336     3.46735253055190