CRYSTAL
# Primitive lattice vectors in Angstrom
PRIMVEC
 4.14447958897576 0.00000000000000 0.00000000000000
 -0.00000000000000 4.14447958897576 0.00000000000000
 0.00000000000000 0.00000000000000 4.14447958897576
# Cartesian coordinates in Angstrom.
PRIMCOORD
 4 1
Fm     0.00000000000000     0.00000000000000     0.00000000000000
O     2.07223979448787     0.00000000000000     0.00000000000000
O     0.00000000000000     2.07223979448787     0.00000000000000
O     0.00000000000000     0.00000000000000     2.07223979448787