CRYSTAL
# Primitive lattice vectors in Angstrom
PRIMVEC
 5.39653584778665 0.00000000000000 0.00000000000000
 -0.00000000000000 5.39653584778665 0.00000000000000
 0.00000000000000 0.00000000000000 5.39653584778665
# Cartesian coordinates in Angstrom.
PRIMCOORD
 14 1
Fm     0.00000000000000     0.00000000000000     0.00000000000000
Fm     2.69826792389332     2.69826792389332     0.00000000000000
Fm     2.69826792389332     0.00000000000000     2.69826792389332
Fm     0.00000000000000     2.69826792389332     2.69826792389332
O     2.69826792389332     0.00000000000000     0.00000000000000
O     0.00000000000000     2.69826792389332     0.00000000000000
O     0.00000000000000     0.00000000000000     2.69826792389332
O     2.69826792389332     2.69826792389332     2.69826792389332
O     4.04740188583999     4.04740188583999     1.34913396194666
O     4.04740188583999     1.34913396194666     4.04740188583999
O     1.34913396194666     4.04740188583999     4.04740188583999
O     4.04740188583999     1.34913396194666     1.34913396194666
O     1.34913396194666     4.04740188583999     1.34913396194666
O     1.34913396194666     1.34913396194666     4.04740188583999