CRYSTAL
# Primitive lattice vectors in Angstrom
PRIMVEC
 3.26515446810168 0.00000000000000 1.88513781110421
 1.08838482270056 3.07841715468834 1.88513781110421
 0.00000000000000 0.00000000000000 3.77027562220843
# Cartesian coordinates in Angstrom.
PRIMCOORD
 3 1
Fm     0.00000000000000     0.00000000000000     0.00000000000000
O     1.08838482270056     0.76960428867209     1.88513781110421
O     3.26515446810168     2.30881286601626     5.65541343331265