CRYSTAL
# Primitive lattice vectors in Angstrom
PRIMVEC
 3.33706405458611 0.00000000000000 1.92665483021831
 1.11235468486203 3.14621416300229 1.92665483021831
 0.00000000000000 0.00000000000000 3.85330966043663
# Cartesian coordinates in Angstrom.
PRIMCOORD
 3 1
Lr     0.00000000000000     0.00000000000000     0.00000000000000
O     1.11235468486203     0.78655354075057     1.92665483021831
O     3.33706405458611     2.35966062225172     5.77996449065495