CRYSTAL
# Primitive lattice vectors in Angstrom
PRIMVEC
 5.51174424777833 0.00000000000000 0.00000000000000
 -0.00000000000000 5.51174424777833 0.00000000000000
 0.00000000000000 0.00000000000000 5.51174424777833
# Cartesian coordinates in Angstrom.
PRIMCOORD
 14 1
Lr     0.00000000000000     0.00000000000000     0.00000000000000
Lr     2.75587212388916     2.75587212388916     0.00000000000000
Lr     2.75587212388916     0.00000000000000     2.75587212388916
Lr     0.00000000000000     2.75587212388916     2.75587212388916
O     2.75587212388916     0.00000000000000     0.00000000000000
O     0.00000000000000     2.75587212388916     0.00000000000000
O     0.00000000000000     0.00000000000000     2.75587212388916
O     2.75587212388916     2.75587212388916     2.75587212388916
O     4.13380818583375     4.13380818583375     1.37793606194458
O     4.13380818583375     1.37793606194458     4.13380818583375
O     1.37793606194458     4.13380818583375     4.13380818583375
O     4.13380818583375     1.37793606194458     1.37793606194458
O     1.37793606194458     4.13380818583375     1.37793606194458
O     1.37793606194458     1.37793606194458     4.13380818583375