CRYSTAL
# Primitive lattice vectors in Angstrom
PRIMVEC
 3.00481549972155 0.00000000000000 1.73483103762939
 1.00160516657385 2.83296722142340 1.73483103762939
 0.00000000000000 0.00000000000000 3.46966207525879
# Cartesian coordinates in Angstrom.
PRIMCOORD
 2 1
Lr     0.00000000000000     0.00000000000000     0.00000000000000
O     2.00321033314770     1.41648361071170     3.46966207525879