CRYSTAL
# Primitive lattice vectors in Angstrom
PRIMVEC
 3.86013452936279 0.00000000000000 2.22864970963578
 1.28671150978759 3.63936973600636 2.22864970963578
 0.00000000000000 0.00000000000000 4.45729941927156
# Cartesian coordinates in Angstrom.
PRIMCOORD
 3 1
Lr     1.28671150978759     0.90984243400159     2.22864970963578
Lr     3.86013452936279     2.72952730200478     6.68594912890734
O     0.00000000000000     0.00000000000000     0.00000000000000