CRYSTAL
# Primitive lattice vectors in Angstrom
PRIMVEC
 5.39219231162528 0.00000000000000 0.00000000000000
 -0.00000000000000 5.39219231162528 0.00000000000000
 0.00000000000000 0.00000000000000 5.39219231162528
# Cartesian coordinates in Angstrom.
PRIMCOORD
 10 1
Lr     1.34804807790632     1.34804807790632     1.34804807790632
Lr     4.04414423371897     4.04414423371897     1.34804807790632
Lr     4.04414423371897     1.34804807790632     4.04414423371897
Lr     1.34804807790632     4.04414423371897     4.04414423371897
O     2.69609615581265     0.00000000000000     0.00000000000000
O     0.00000000000000     2.69609615581265     0.00000000000000
O     0.00000000000000     0.00000000000000     2.69609615581265
O     2.69609615581265     2.69609615581265     0.00000000000000
O     2.69609615581265     0.00000000000000     2.69609615581265
O     0.00000000000000     2.69609615581265     2.69609615581265