CRYSTAL
# Primitive lattice vectors in Angstrom
PRIMVEC
 3.03282918263170 0.00000000000000 1.75100474499856
 1.01094306087723 2.85937877495910 1.75100474499856
 0.00000000000000 0.00000000000000 3.50200948999712
# Cartesian coordinates in Angstrom.
PRIMCOORD
 2 1
Md     0.00000000000000     0.00000000000000     0.00000000000000
O     2.02188612175447     1.42968938747955     3.50200948999712