CRYSTAL
# Primitive lattice vectors in Angstrom
PRIMVEC
 3.29598189172978 0.00000000000000 1.90293603243432
 1.09866063057659 3.10748152841359 1.90293603243432
 0.00000000000000 0.00000000000000 3.80587206486864
# Cartesian coordinates in Angstrom.
PRIMCOORD
 3 1
Md     0.00000000000000     0.00000000000000     0.00000000000000
O     1.09866063057659     0.77687038210340     1.90293603243432
O     3.29598189172978     2.33061114631020     5.70880809730297