CRYSTAL
# Primitive lattice vectors in Angstrom
PRIMVEC
 5.45473012163837 0.00000000000000 0.00000000000000
 -0.00000000000000 5.45473012163837 0.00000000000000
 0.00000000000000 0.00000000000000 5.45473012163837
# Cartesian coordinates in Angstrom.
PRIMCOORD
 14 1
Md     0.00000000000000     0.00000000000000     0.00000000000000
Md     2.72736506081918     2.72736506081918     0.00000000000000
Md     2.72736506081918     0.00000000000000     2.72736506081918
Md     0.00000000000000     2.72736506081918     2.72736506081918
O     2.72736506081918     0.00000000000000     0.00000000000000
O     0.00000000000000     2.72736506081918     0.00000000000000
O     0.00000000000000     0.00000000000000     2.72736506081918
O     2.72736506081918     2.72736506081918     2.72736506081918
O     4.09104759122878     4.09104759122878     1.36368253040959
O     4.09104759122878     1.36368253040959     4.09104759122878
O     1.36368253040959     4.09104759122878     4.09104759122878
O     4.09104759122878     1.36368253040959     1.36368253040959
O     1.36368253040959     4.09104759122878     1.36368253040959
O     1.36368253040959     1.36368253040959     4.09104759122878