CRYSTAL
# Primitive lattice vectors in Angstrom
PRIMVEC
 3.75422363407448 0.00000000000000 2.16750202573096
 1.25140787802482 3.53951598632649 2.16750202573096
 0.00000000000000 0.00000000000000 4.33500405146191
# Cartesian coordinates in Angstrom.
PRIMCOORD
 3 1
Md     1.25140787802482     0.88487899658162     2.16750202573096
Md     3.75422363407448     2.65463698974487     6.50250607719287
O     0.00000000000000     0.00000000000000     0.00000000000000