CRYSTAL
# Primitive lattice vectors in Angstrom
PRIMVEC
 5.37947286337109 0.00000000000000 0.00000000000000
 -0.00000000000000 5.37947286337109 0.00000000000000
 0.00000000000000 0.00000000000000 5.37947286337109
# Cartesian coordinates in Angstrom.
PRIMCOORD
 10 1
Md     1.34486821584277     1.34486821584277     1.34486821584277
Md     4.03460464752832     4.03460464752832     1.34486821584277
Md     4.03460464752832     1.34486821584277     4.03460464752832
Md     1.34486821584277     4.03460464752832     4.03460464752832
O     2.68973643168555     0.00000000000000     0.00000000000000
O     0.00000000000000     2.68973643168555     0.00000000000000
O     0.00000000000000     0.00000000000000     2.68973643168555
O     2.68973643168555     2.68973643168555     0.00000000000000
O     2.68973643168555     0.00000000000000     2.68973643168555
O     0.00000000000000     2.68973643168555     2.68973643168555