CRYSTAL
# Primitive lattice vectors in Angstrom
PRIMVEC
 4.20721111198674 0.00000000000000 0.00000000000000
 -0.00000000000000 4.20721111198674 0.00000000000000
 0.00000000000000 0.00000000000000 4.20721111198674
# Cartesian coordinates in Angstrom.
PRIMCOORD
 4 1
Md     0.00000000000000     0.00000000000000     0.00000000000000
O     2.10360555599337     0.00000000000000     0.00000000000000
O     0.00000000000000     2.10360555599337     0.00000000000000
O     0.00000000000000     0.00000000000000     2.10360555599337