CRYSTAL
# Primitive lattice vectors in Angstrom
PRIMVEC
 3.89932084667231 0.00000000000000 2.25127394048298
 1.29977361555743 3.67631495027208 2.25127394048298
 0.00000000000000 0.00000000000000 4.50254788096596
# Cartesian coordinates in Angstrom.
PRIMCOORD
 3 1
No     1.29977361555743     0.91907873756802     2.25127394048298
No     3.89932084667231     2.75723621270406     6.75382182144893
O     0.00000000000000     0.00000000000000     0.00000000000000