CRYSTAL
# Primitive lattice vectors in Angstrom
PRIMVEC
 4.29370869097088 0.00000000000000 0.00000000000000
 -0.00000000000000 4.29370869097088 0.00000000000000
 0.00000000000000 0.00000000000000 4.29370869097088
# Cartesian coordinates in Angstrom.
PRIMCOORD
 4 1
No     0.00000000000000     0.00000000000000     0.00000000000000
O     2.14685434548544     0.00000000000000     0.00000000000000
O     0.00000000000000     2.14685434548544     0.00000000000000
O     0.00000000000000     0.00000000000000     2.14685434548544