CRYSTAL
# Primitive lattice vectors in Angstrom
PRIMVEC
 3.33958301883598 0.00000000000000 1.92810915490606
 1.11319433961199 3.14858906527249 1.92810915490606
 0.00000000000000 0.00000000000000 3.85621830981211
# Cartesian coordinates in Angstrom.
PRIMCOORD
 3 1
No     0.00000000000000     0.00000000000000     0.00000000000000
O     1.11319433961199     0.78714726631812     1.92810915490606
O     3.33958301883598     2.36144179895437     5.78432746471818