CRYSTAL
# Primitive lattice vectors in Angstrom
PRIMVEC
 3.07185322549026 0.00000000000000 1.77353528664782
 1.02395107516342 2.89617099540524 1.77353528664782
 0.00000000000000 0.00000000000000 3.54707057329564
# Cartesian coordinates in Angstrom.
PRIMCOORD
 2 1
No     0.00000000000000     0.00000000000000     0.00000000000000
O     2.04790215032684     1.44808549770261     3.54707057329564