CRYSTAL
# Primitive lattice vectors in Angstrom
PRIMVEC
 5.52958416128102 0.00000000000000 0.00000000000000
 -0.00000000000000 5.52958416128102 0.00000000000000
 0.00000000000000 0.00000000000000 5.52958416128102
# Cartesian coordinates in Angstrom.
PRIMCOORD
 14 1
No     0.00000000000000     0.00000000000000     0.00000000000000
No     2.76479208064051     2.76479208064051     0.00000000000000
No     2.76479208064051     0.00000000000000     2.76479208064051
No     0.00000000000000     2.76479208064051     2.76479208064051
O     2.76479208064051     0.00000000000000     0.00000000000000
O     0.00000000000000     2.76479208064051     0.00000000000000
O     0.00000000000000     0.00000000000000     2.76479208064051
O     2.76479208064051     2.76479208064051     2.76479208064051
O     4.14718812096077     4.14718812096077     1.38239604032026
O     4.14718812096077     1.38239604032026     4.14718812096077
O     1.38239604032026     4.14718812096077     4.14718812096077
O     4.14718812096077     1.38239604032026     1.38239604032026
O     1.38239604032026     4.14718812096077     1.38239604032026
O     1.38239604032026     1.38239604032026     4.14718812096077