CRYSTAL
# Primitive lattice vectors in Angstrom
PRIMVEC
 5.45556398132989 0.00000000000000 0.00000000000000
 -0.00000000000000 5.45556398132989 0.00000000000000
 0.00000000000000 0.00000000000000 5.45556398132989
# Cartesian coordinates in Angstrom.
PRIMCOORD
 10 1
No     1.36389099533247     1.36389099533247     1.36389099533247
No     4.09167298599742     4.09167298599742     1.36389099533247
No     4.09167298599742     1.36389099533247     4.09167298599742
No     1.36389099533247     4.09167298599742     4.09167298599742
O     2.72778199066495     0.00000000000000     0.00000000000000
O     0.00000000000000     2.72778199066495     0.00000000000000
O     0.00000000000000     0.00000000000000     2.72778199066495
O     2.72778199066495     2.72778199066495     0.00000000000000
O     2.72778199066495     0.00000000000000     2.72778199066495
O     0.00000000000000     2.72778199066495     2.72778199066495