CRYSTAL
PRIMVEC
 0.00000000000000 2.71105565248590 2.71105565248590
 2.71105565248590 0.00000000000000 2.71105565248590
 2.71105565248590 2.71105565248590 0.00000000000000
PRIMCOORD
 2 1
 97     0.00000000000000     0.00000000000000     0.00000000000000
 97     1.35552782624295     1.35552782624295     1.35552782624295
