CRYSTAL
PRIMVEC
 0.00000000000000 2.77048404188022 2.77048404188022
 2.77048404188022 0.00000000000000 2.77048404188022
 2.77048404188022 2.77048404188022 0.00000000000000
PRIMCOORD
 2 1
 98     0.00000000000000     0.00000000000000     0.00000000000000
 98     1.38524202094011     1.38524202094011     1.38524202094011
