CRYSTAL
PRIMVEC
 0.00000000000000 2.89041014913870 2.89041014913870
 2.89041014913870 0.00000000000000 2.89041014913870
 2.89041014913870 2.89041014913870 0.00000000000000
PRIMCOORD
 2 1
 99     0.00000000000000     0.00000000000000     0.00000000000000
 99     1.44520507456935     1.44520507456935     1.44520507456935
