CRYSTAL
PRIMVEC
 0.00000000000000 3.27400040343334 3.27400040343334
 3.27400040343334 0.00000000000000 3.27400040343334
 3.27400040343334 3.27400040343334 0.00000000000000
PRIMCOORD
 2 1
 100     0.00000000000000     0.00000000000000     0.00000000000000
 100     1.63700020171667     1.63700020171667     1.63700020171667
