CRYSTAL
PRIMVEC
 0.00000000000000 3.80467747711811 3.80467747711811
 3.80467747711811 0.00000000000000 3.80467747711811
 3.80467747711811 3.80467747711811 0.00000000000000
PRIMCOORD
 2 1
 103     0.00000000000000     0.00000000000000     0.00000000000000
 103     1.90233873855906     1.90233873855906     1.90233873855906
