CRYSTAL
PRIMVEC
 0.00000000000000 4.38155969447727 4.38155969447727
 4.38155969447727 0.00000000000000 4.38155969447727
 4.38155969447727 4.38155969447727 0.00000000000000
PRIMCOORD
 2 1
 101     0.00000000000000     0.00000000000000     0.00000000000000
 101     2.19077984723863     2.19077984723863     2.19077984723863
