CRYSTAL
PRIMVEC
 0.00000000000000 4.77058209566253 4.77058209566253
 4.77058209566253 0.00000000000000 4.77058209566253
 4.77058209566253 4.77058209566253 0.00000000000000
PRIMCOORD
 2 1
 102     0.00000000000000     0.00000000000000     0.00000000000000
 102     2.38529104783126     2.38529104783126     2.38529104783126
