CRYSTAL
# Primitive lattice vectors in Angstrom
PRIMVEC
 5.88018877172753 0.00000000000000 0.00000000000000
 -0.00000000000000 5.88018877172753 0.00000000000000
 0.00000000000000 0.00000000000000 5.88018877172753
# Cartesian coordinates in Angstrom.
PRIMCOORD
 10 1
Ac     1.47004719293188     1.47004719293188     1.47004719293188
Ac     4.41014157879565     4.41014157879565     1.47004719293188
Ac     4.41014157879565     1.47004719293188     4.41014157879565
Ac     1.47004719293188     4.41014157879565     4.41014157879565
O     2.94009438586377     0.00000000000000     0.00000000000000
O    -0.00000000000000     2.94009438586377     0.00000000000000
O     0.00000000000000     0.00000000000000     2.94009438586377
O     2.94009438586377     2.94009438586377     0.00000000000000
O     2.94009438586377     0.00000000000000     2.94009438586377
O    -0.00000000000000     2.94009438586377     2.94009438586377