CRYSTAL
# Primitive lattice vectors in Angstrom
PRIMVEC
 3.29640073449849 0.00000000000000 1.90317785141958
 1.09880024483283 3.10787641716293 1.90317785141958
 0.00000000000000 0.00000000000000 3.80635570283916
# Cartesian coordinates in Angstrom.
PRIMCOORD
 2 1
Ac     0.00000000000000     0.00000000000000     0.00000000000000
O     2.19760048966566     1.55393820858146     3.80635570283916