CRYSTAL
# Primitive lattice vectors in Angstrom
PRIMVEC
 4.19547479704444 0.00000000000000 2.42225850345190
 1.39849159901481 3.95553157238317 2.42225850345190
 0.00000000000000 0.00000000000000 4.84451700690380
# Cartesian coordinates in Angstrom.
PRIMCOORD
 3 1
Ac     1.39849159901481     0.98888289309579     2.42225850345190
Ac     4.19547479704444     2.96664867928738     7.26677551035570
O     0.00000000000000     0.00000000000000     0.00000000000000