CRYSTAL
# Primitive lattice vectors in Angstrom
PRIMVEC
 5.92275531492344 0.00000000000000 0.00000000000000
 -0.00000000000000 5.92275531492344 0.00000000000000
 0.00000000000000 0.00000000000000 5.92275531492344
# Cartesian coordinates in Angstrom.
PRIMCOORD
 14 1
Ac     0.00000000000000     0.00000000000000     0.00000000000000
Ac     2.96137765746172     2.96137765746172     0.00000000000000
Ac     2.96137765746172     0.00000000000000     2.96137765746172
Ac    -0.00000000000000     2.96137765746172     2.96137765746172
O     2.96137765746172     0.00000000000000     0.00000000000000
O    -0.00000000000000     2.96137765746172     0.00000000000000
O     0.00000000000000     0.00000000000000     2.96137765746172
O     2.96137765746172     2.96137765746172     2.96137765746172
O     4.44206648619258     4.44206648619258     1.48068882873086
O     4.44206648619258     1.48068882873086     4.44206648619258
O     1.48068882873086     4.44206648619258     4.44206648619258
O     4.44206648619258     1.48068882873086     1.48068882873086
O     1.48068882873086     4.44206648619258     1.48068882873086
O     1.48068882873086     1.48068882873086     4.44206648619258