CRYSTAL
# Primitive lattice vectors in Angstrom
PRIMVEC
 3.65034579899098 0.00000000000000 2.10752812968266
 1.21678193299699 3.44157902418980 2.10752812968266
 0.00000000000000 0.00000000000000 4.21505625936532
# Cartesian coordinates in Angstrom.
PRIMCOORD
 3 1
Ac     0.00000000000000     0.00000000000000     0.00000000000000
O     1.21678193299699     0.86039475604745     2.10752812968266
O     3.65034579899098     2.58118426814235     6.32258438904799