CRYSTAL
# Primitive lattice vectors in Angstrom
PRIMVEC
 4.50538742731009 0.00000000000000 0.00000000000000
 -0.00000000000000 4.50538742731009 0.00000000000000
 0.00000000000000 0.00000000000000 4.50538742731009
# Cartesian coordinates in Angstrom.
PRIMCOORD
 4 1
Ac     0.00000000000000     0.00000000000000     0.00000000000000
O     2.25269371365504     0.00000000000000     0.00000000000000
O    -0.00000000000000     2.25269371365504     0.00000000000000
O     0.00000000000000     0.00000000000000     2.25269371365504