CRYSTAL
# Primitive lattice vectors in Angstrom
PRIMVEC
 3.54218436576209 0.00000000000000 2.04508109709203
 1.18072812192070 3.33960344699113 2.04508109709203
 0.00000000000000 0.00000000000000 4.09016219418406
# Cartesian coordinates in Angstrom.
PRIMCOORD
 3 1
Ag     1.18072812192070     0.83490086174778     2.04508109709203
Ag     3.54218436576209     2.50470258524335     6.13524329127609
O     0.00000000000000     0.00000000000000     0.00000000000000