CRYSTAL
# Primitive lattice vectors in Angstrom
PRIMVEC
 2.86159004205999 0.00000000000000 1.65213978109369
 0.95386334735333 2.69793296495536 1.65213978109369
 0.00000000000000 0.00000000000000 3.30427956218738
# Cartesian coordinates in Angstrom.
PRIMCOORD
 2 1
Ag     0.00000000000000     0.00000000000000     0.00000000000000
O     1.90772669470666     1.34896648247768     3.30427956218738