CRYSTAL
# Primitive lattice vectors in Angstrom
PRIMVEC
 3.16100151583223 0.00000000000000 1.82500507607455
 1.05366717194408 2.98022080958123 1.82500507607455
 0.00000000000000 0.00000000000000 3.65001015214910
# Cartesian coordinates in Angstrom.
PRIMCOORD
 3 1
Ag     0.00000000000000     0.00000000000000     0.00000000000000
O     1.05366717194408     0.74505520239531     1.82500507607455
O     3.16100151583223     2.23516560718592     5.47501522822366