CRYSTAL
# Primitive lattice vectors in Angstrom
PRIMVEC
 5.08232928788161 0.00000000000000 0.00000000000000
 -0.00000000000000 5.08232928788161 0.00000000000000
 0.00000000000000 0.00000000000000 5.08232928788161
# Cartesian coordinates in Angstrom.
PRIMCOORD
 10 1
Ag     1.27058232197040     1.27058232197040     1.27058232197040
Ag     3.81174696591121     3.81174696591121     1.27058232197040
Ag     3.81174696591121     1.27058232197040     3.81174696591121
Ag     1.27058232197040     3.81174696591121     3.81174696591121
O     2.54116464394081     0.00000000000000     0.00000000000000
O    -0.00000000000000     2.54116464394081     0.00000000000000
O     0.00000000000000     0.00000000000000     2.54116464394081
O     2.54116464394081     2.54116464394081     0.00000000000000
O     2.54116464394081     0.00000000000000     2.54116464394081
O    -0.00000000000000     2.54116464394081     2.54116464394081