CRYSTAL
# Primitive lattice vectors in Angstrom
PRIMVEC
 5.31214655865219 0.00000000000000 0.00000000000000
 -0.00000000000000 5.31214655865219 0.00000000000000
 0.00000000000000 0.00000000000000 5.31214655865219
# Cartesian coordinates in Angstrom.
PRIMCOORD
 14 1
Ag     0.00000000000000     0.00000000000000     0.00000000000000
Ag     2.65607327932610     2.65607327932610     0.00000000000000
Ag     2.65607327932610     0.00000000000000     2.65607327932610
Ag    -0.00000000000000     2.65607327932610     2.65607327932610
O     2.65607327932610     0.00000000000000     0.00000000000000
O    -0.00000000000000     2.65607327932610     0.00000000000000
O     0.00000000000000     0.00000000000000     2.65607327932610
O     2.65607327932610     2.65607327932610     2.65607327932610
O     3.98410991898914     3.98410991898915     1.32803663966305
O     3.98410991898915     1.32803663966305     3.98410991898915
O     1.32803663966305     3.98410991898915     3.98410991898915
O     3.98410991898915     1.32803663966305     1.32803663966305
O     1.32803663966305     3.98410991898915     1.32803663966305
O     1.32803663966305     1.32803663966305     3.98410991898915