CRYSTAL
# Primitive lattice vectors in Angstrom
PRIMVEC
 4.02464081242508 0.00000000000000 0.00000000000000
 -0.00000000000000 4.02464081242508 0.00000000000000
 0.00000000000000 0.00000000000000 4.02464081242508
# Cartesian coordinates in Angstrom.
PRIMCOORD
 4 1
Ag     0.00000000000000     0.00000000000000     0.00000000000000
O     2.01232040621254     0.00000000000000     0.00000000000000
O    -0.00000000000000     2.01232040621254     0.00000000000000
O     0.00000000000000     0.00000000000000     2.01232040621254