CRYSTAL
# Primitive lattice vectors in Angstrom
PRIMVEC
 5.01517388314219 0.00000000000000 0.00000000000000
 -0.00000000000000 5.01517388314219 0.00000000000000
 0.00000000000000 0.00000000000000 5.01517388314219
# Cartesian coordinates in Angstrom.
PRIMCOORD
 14 1
Al     0.00000000000000     0.00000000000000     0.00000000000000
Al     2.50758694157109     2.50758694157109     0.00000000000000
Al     2.50758694157109     0.00000000000000     2.50758694157109
Al    -0.00000000000000     2.50758694157109     2.50758694157109
O     2.50758694157109     0.00000000000000     0.00000000000000
O    -0.00000000000000     2.50758694157109     0.00000000000000
O     0.00000000000000     0.00000000000000     2.50758694157109
O     2.50758694157109     2.50758694157109     2.50758694157109
O     3.76138041235664     3.76138041235664     1.25379347078555
O     3.76138041235664     1.25379347078555     3.76138041235664
O     1.25379347078555     3.76138041235664     3.76138041235664
O     3.76138041235664     1.25379347078555     1.25379347078555
O     1.25379347078555     3.76138041235664     1.25379347078555
O     1.25379347078555     1.25379347078555     3.76138041235664