CRYSTAL
# Primitive lattice vectors in Angstrom
PRIMVEC
 3.67765651003504 0.00000000000000 0.00000000000000
 -0.00000000000000 3.67765651003504 0.00000000000000
 0.00000000000000 0.00000000000000 3.67765651003504
# Cartesian coordinates in Angstrom.
PRIMCOORD
 4 1
Al     0.00000000000000     0.00000000000000     0.00000000000000
O     1.83882825501752     0.00000000000000     0.00000000000000
O    -0.00000000000000     1.83882825501752     0.00000000000000
O     0.00000000000000     0.00000000000000     1.83882825501752