CRYSTAL
# Primitive lattice vectors in Angstrom
PRIMVEC
 3.48829989304841 0.00000000000000 2.01397088226564
 1.16276663101614 3.28880067891579 2.01397088226564
 0.00000000000000 0.00000000000000 4.02794176453129
# Cartesian coordinates in Angstrom.
PRIMCOORD
 3 1
Al     1.16276663101614     0.82220016972895     2.01397088226564
Al     3.48829989304841     2.46660050918684     6.04191264679693
O     0.00000000000000     0.00000000000000     0.00000000000000