CRYSTAL
# Primitive lattice vectors in Angstrom
PRIMVEC
 2.74258825770927 0.00000000000000 1.58343406886475
 0.91419608590309 2.58573700670509 1.58343406886475
 0.00000000000000 0.00000000000000 3.16686813772950
# Cartesian coordinates in Angstrom.
PRIMCOORD
 2 1
Al     0.00000000000000     0.00000000000000     0.00000000000000
O     1.82839217180618     1.29286850335255     3.16686813772950