CRYSTAL
# Primitive lattice vectors in Angstrom
PRIMVEC
 4.61789741215330 0.00000000000000 0.00000000000000
 -0.00000000000000 4.61789741215330 0.00000000000000
 0.00000000000000 0.00000000000000 4.61789741215330
# Cartesian coordinates in Angstrom.
PRIMCOORD
 10 1
Al     1.15447435303833     1.15447435303833     1.15447435303833
Al     3.46342305911498     3.46342305911498     1.15447435303833
Al     3.46342305911498     1.15447435303833     3.46342305911498
Al     1.15447435303833     3.46342305911498     3.46342305911498
O     2.30894870607665     0.00000000000000     0.00000000000000
O    -0.00000000000000     2.30894870607665     0.00000000000000
O     0.00000000000000     0.00000000000000     2.30894870607665
O     2.30894870607665     2.30894870607665     0.00000000000000
O     2.30894870607665     0.00000000000000     2.30894870607665
O    -0.00000000000000     2.30894870607665     2.30894870607665