CRYSTAL
# Primitive lattice vectors in Angstrom
PRIMVEC
 2.89086556371696 0.00000000000000 1.66904201140300
 0.96362185457232 2.72553419147058 1.66904201140300
 0.00000000000000 0.00000000000000 3.33808402280601
# Cartesian coordinates in Angstrom.
PRIMCOORD
 3 1
Al     0.00000000000000     0.00000000000000     0.00000000000000
O     0.96362185457232     0.68138354786764     1.66904201140300
O     2.89086556371696     2.04415064360293     5.00712603420901