CRYSTAL
# Primitive lattice vectors in Angstrom
PRIMVEC
 3.46819411180492 0.00000000000000 2.00236280405245
 1.15606470393497 3.26984476657135 2.00236280405245
 0.00000000000000 0.00000000000000 4.00472560810489
# Cartesian coordinates in Angstrom.
PRIMCOORD
 3 1
Am     1.15606470393497     0.81746119164284     2.00236280405244
Am     3.46819411180492     2.45238357492851     6.00708841215734
O     0.00000000000000     0.00000000000000     0.00000000000000