CRYSTAL
# Primitive lattice vectors in Angstrom
PRIMVEC
 5.24873230838545 0.00000000000000 0.00000000000000
 -0.00000000000000 5.24873230838545 0.00000000000000
 0.00000000000000 0.00000000000000 5.24873230838545
# Cartesian coordinates in Angstrom.
PRIMCOORD
 10 1
Am     1.31218307709636     1.31218307709636     1.31218307709636
Am     3.93654923128908     3.93654923128909     1.31218307709636
Am     3.93654923128909     1.31218307709636     3.93654923128909
Am     1.31218307709636     3.93654923128909     3.93654923128909
O     2.62436615419272     0.00000000000000     0.00000000000000
O    -0.00000000000000     2.62436615419272     0.00000000000000
O     0.00000000000000     0.00000000000000     2.62436615419272
O     2.62436615419272     2.62436615419272     0.00000000000000
O     2.62436615419272     0.00000000000000     2.62436615419272
O    -0.00000000000000     2.62436615419272     2.62436615419272