CRYSTAL
# Primitive lattice vectors in Angstrom
PRIMVEC
 5.29606344050269 0.00000000000000 0.00000000000000
 -0.00000000000000 5.29606344050269 0.00000000000000
 0.00000000000000 0.00000000000000 5.29606344050269
# Cartesian coordinates in Angstrom.
PRIMCOORD
 14 1
Am     0.00000000000000     0.00000000000000     0.00000000000000
Am     2.64803172025134     2.64803172025134     0.00000000000000
Am     2.64803172025134     0.00000000000000     2.64803172025134
Am    -0.00000000000000     2.64803172025134     2.64803172025134
O     2.64803172025134     0.00000000000000     0.00000000000000
O    -0.00000000000000     2.64803172025134     0.00000000000000
O     0.00000000000000     0.00000000000000     2.64803172025134
O     2.64803172025134     2.64803172025134     2.64803172025134
O     3.97204758037702     3.97204758037702     1.32401586012567
O     3.97204758037702     1.32401586012567     3.97204758037702
O     1.32401586012567     3.97204758037702     3.97204758037702
O     3.97204758037702     1.32401586012567     1.32401586012567
O     1.32401586012567     3.97204758037702     1.32401586012567
O     1.32401586012567     1.32401586012567     3.97204758037702