CRYSTAL
# Primitive lattice vectors in Angstrom
PRIMVEC
 3.23811893094083 0.00000000000000 1.86952883644671
 1.07937297698028 3.05292780580906 1.86952883644671
 0.00000000000000 0.00000000000000 3.73905767289342
# Cartesian coordinates in Angstrom.
PRIMCOORD
 3 1
Am     0.00000000000000     0.00000000000000     0.00000000000000
O     1.07937297698028     0.76323195145226     1.86952883644671
O     3.23811893094083     2.28969585435679     5.60858650934013