CRYSTAL
# Primitive lattice vectors in Angstrom
PRIMVEC
 2.90408392957509 0.00000000000000 1.67667363848944
 0.96802797652503 2.73799658631656 1.67667363848944
 0.00000000000000 0.00000000000000 3.35334727697888
# Cartesian coordinates in Angstrom.
PRIMCOORD
 2 1
Am     0.00000000000000     0.00000000000000     0.00000000000000
O     1.93605595305006     1.36899829315828     3.35334727697888