CRYSTAL
# Primitive lattice vectors in Angstrom
PRIMVEC
 4.07861197818638 0.00000000000000 0.00000000000000
 -0.00000000000000 4.07861197818638 0.00000000000000
 0.00000000000000 0.00000000000000 4.07861197818638
# Cartesian coordinates in Angstrom.
PRIMCOORD
 4 1
Am     0.00000000000000     0.00000000000000     0.00000000000000
O     2.03930598909319     0.00000000000000     0.00000000000000
O    -0.00000000000000     2.03930598909319     0.00000000000000
O     0.00000000000000     0.00000000000000     2.03930598909319