CRYSTAL
# Primitive lattice vectors in Angstrom
PRIMVEC
 5.70206801731750 0.00000000000000 0.00000000000000
 -0.00000000000000 5.70206801731750 0.00000000000000
 0.00000000000000 0.00000000000000 5.70206801731750
# Cartesian coordinates in Angstrom.
PRIMCOORD
 14 1
Ar     0.00000000000000     0.00000000000000     0.00000000000000
Ar     2.85103400865875     2.85103400865875     0.00000000000000
Ar     2.85103400865875     0.00000000000000     2.85103400865875
Ar    -0.00000000000000     2.85103400865875     2.85103400865875
O     2.85103400865875     0.00000000000000     0.00000000000000
O    -0.00000000000000     2.85103400865875     0.00000000000000
O     0.00000000000000     0.00000000000000     2.85103400865875
O     2.85103400865875     2.85103400865875     2.85103400865875
O     4.27655101298812     4.27655101298812     1.42551700432937
O     4.27655101298812     1.42551700432937     4.27655101298812
O     1.42551700432937     4.27655101298812     4.27655101298812
O     4.27655101298812     1.42551700432937     1.42551700432937
O     1.42551700432937     4.27655101298812     1.42551700432937
O     1.42551700432937     1.42551700432937     4.27655101298812