CRYSTAL
# Primitive lattice vectors in Angstrom
PRIMVEC
 3.30826270603664 0.00000000000000 1.91002636388025
 1.10275423534555 3.11905999118008 1.91002636388025
 0.00000000000000 0.00000000000000 3.82005272776050
# Cartesian coordinates in Angstrom.
PRIMCOORD
 2 1
Ar     0.00000000000000     0.00000000000000     0.00000000000000
O     2.20550847069109     1.55952999559004     3.82005272776050