CRYSTAL
# Primitive lattice vectors in Angstrom
PRIMVEC
 5.90985206685816 0.00000000000000 0.00000000000000
 -0.00000000000000 5.90985206685816 0.00000000000000
 0.00000000000000 0.00000000000000 5.90985206685816
# Cartesian coordinates in Angstrom.
PRIMCOORD
 10 1
Ar     1.47746301671454     1.47746301671454     1.47746301671454
Ar     4.43238905014362     4.43238905014362     1.47746301671454
Ar     4.43238905014362     1.47746301671454     4.43238905014362
Ar     1.47746301671454     4.43238905014362     4.43238905014362
O     2.95492603342908     0.00000000000000     0.00000000000000
O    -0.00000000000000     2.95492603342908     0.00000000000000
O     0.00000000000000     0.00000000000000     2.95492603342908
O     2.95492603342908     2.95492603342908     0.00000000000000
O     2.95492603342908     0.00000000000000     2.95492603342908
O    -0.00000000000000     2.95492603342908     2.95492603342908