CRYSTAL
# Primitive lattice vectors in Angstrom
PRIMVEC
 4.70417295528974 0.00000000000000 2.71595552205109
 1.56805765176325 4.43513679541299 2.71595552205109
 0.00000000000000 0.00000000000000 5.43191104410218
# Cartesian coordinates in Angstrom.
PRIMCOORD
 3 1
Ar     1.56805765176325     1.10878419885325     2.71595552205109
Ar     4.70417295528974     3.32635259655974     8.14786656615327
O     0.00000000000000     0.00000000000000     0.00000000000000