CRYSTAL
# Primitive lattice vectors in Angstrom
PRIMVEC
 4.08814210457608 0.00000000000000 0.00000000000000
 -0.00000000000000 4.08814210457608 0.00000000000000
 0.00000000000000 0.00000000000000 4.08814210457608
# Cartesian coordinates in Angstrom.
PRIMCOORD
 4 1
Ar     0.00000000000000     0.00000000000000     0.00000000000000
O     2.04407105228804     0.00000000000000     0.00000000000000
O    -0.00000000000000     2.04407105228804     0.00000000000000
O     0.00000000000000     0.00000000000000     2.04407105228804