CRYSTAL
# Primitive lattice vectors in Angstrom
PRIMVEC
 3.61245973359861 0.00000000000000 2.08565459962984
 1.20415324453287 3.40585969918790 2.08565459962984
 0.00000000000000 0.00000000000000 4.17130919925968
# Cartesian coordinates in Angstrom.
PRIMCOORD
 3 1
Ar     0.00000000000000     0.00000000000000     0.00000000000000
O     1.20415324453287     0.85146492479698     2.08565459962984
O     3.61245973359861     2.55439477439093     6.25696379888952