CRYSTAL
# Primitive lattice vectors in Angstrom
PRIMVEC
 2.92321334115981 0.00000000000000 1.68771800941732
 0.97440444705327 2.75603196851879 1.68771800941732
 0.00000000000000 0.00000000000000 3.37543601883465
# Cartesian coordinates in Angstrom.
PRIMCOORD
 2 1
As     0.00000000000000     0.00000000000000     0.00000000000000
O     1.94880889410654     1.37801598425939     3.37543601883465