CRYSTAL
# Primitive lattice vectors in Angstrom
PRIMVEC
 3.52822889543110 0.00000000000000 2.03702390253976
 1.17607629847703 3.32644610338354 2.03702390253976
 0.00000000000000 0.00000000000000 4.07404780507952
# Cartesian coordinates in Angstrom.
PRIMCOORD
 3 1
As     1.17607629847703     0.83161152584588     2.03702390253976
As     3.52822889543110     2.49483457753765     6.11107170761928
O     0.00000000000000     0.00000000000000     0.00000000000000