CRYSTAL
# Primitive lattice vectors in Angstrom
PRIMVEC
 5.07359714101257 0.00000000000000 0.00000000000000
 -0.00000000000000 5.07359714101257 0.00000000000000
 0.00000000000000 0.00000000000000 5.07359714101257
# Cartesian coordinates in Angstrom.
PRIMCOORD
 10 1
As     1.26839928525314     1.26839928525314     1.26839928525314
As     3.80519785575943     3.80519785575943     1.26839928525314
As     3.80519785575943     1.26839928525314     3.80519785575943
As     1.26839928525314     3.80519785575943     3.80519785575943
O     2.53679857050629     0.00000000000000     0.00000000000000
O    -0.00000000000000     2.53679857050629     0.00000000000000
O     0.00000000000000     0.00000000000000     2.53679857050629
O     2.53679857050629     2.53679857050629     0.00000000000000
O     2.53679857050629     0.00000000000000     2.53679857050629
O    -0.00000000000000     2.53679857050629     2.53679857050629