CRYSTAL
# Primitive lattice vectors in Angstrom
PRIMVEC
 3.07019688725275 0.00000000000000 1.77257899932053
 1.02339896241758 2.89460938473900 1.77257899932053
 0.00000000000000 0.00000000000000 3.54515799864105
# Cartesian coordinates in Angstrom.
PRIMCOORD
 3 1
As     0.00000000000000     0.00000000000000     0.00000000000000
O     1.02339896241758     0.72365234618475     1.77257899932053
O     3.07019688725275     2.17095703855425     5.31773699796158