CRYSTAL
# Primitive lattice vectors in Angstrom
PRIMVEC
 5.24220920932636 0.00000000000000 0.00000000000000
 -0.00000000000000 5.24220920932636 0.00000000000000
 0.00000000000000 0.00000000000000 5.24220920932636
# Cartesian coordinates in Angstrom.
PRIMCOORD
 14 1
As     0.00000000000000     0.00000000000000     0.00000000000000
As     2.62110460466318     2.62110460466318     0.00000000000000
As     2.62110460466318     0.00000000000000     2.62110460466318
As    -0.00000000000000     2.62110460466318     2.62110460466318
O     2.62110460466318     0.00000000000000     0.00000000000000
O    -0.00000000000000     2.62110460466318     0.00000000000000
O     0.00000000000000     0.00000000000000     2.62110460466318
O     2.62110460466318     2.62110460466318     2.62110460466318
O     3.93165690699477     3.93165690699477     1.31055230233159
O     3.93165690699477     1.31055230233159     3.93165690699477
O     1.31055230233159     3.93165690699477     3.93165690699477
O     3.93165690699477     1.31055230233159     1.31055230233159
O     1.31055230233159     3.93165690699477     1.31055230233159
O     1.31055230233159     1.31055230233159     3.93165690699477