CRYSTAL
# Primitive lattice vectors in Angstrom
PRIMVEC
 3.61754800102677 0.00000000000000 0.00000000000000
 -0.00000000000000 3.61754800102677 0.00000000000000
 0.00000000000000 0.00000000000000 3.61754800102677
# Cartesian coordinates in Angstrom.
PRIMCOORD
 4 1
As     0.00000000000000     0.00000000000000     0.00000000000000
O     1.80877400051339     0.00000000000000     0.00000000000000
O    -0.00000000000000     1.80877400051339     0.00000000000000
O     0.00000000000000     0.00000000000000     1.80877400051339