CRYSTAL
# Primitive lattice vectors in Angstrom
PRIMVEC
 4.15410232452742 0.00000000000000 0.00000000000000
 -0.00000000000000 4.15410232452742 0.00000000000000
 0.00000000000000 0.00000000000000 4.15410232452742
# Cartesian coordinates in Angstrom.
PRIMCOORD
 4 1
At     0.00000000000000     0.00000000000000     0.00000000000000
O     2.07705116226371     0.00000000000000     0.00000000000000
O    -0.00000000000000     2.07705116226371     0.00000000000000
O     0.00000000000000     0.00000000000000     2.07705116226371