CRYSTAL
# Primitive lattice vectors in Angstrom
PRIMVEC
 5.62045766823052 0.00000000000000 0.00000000000000
 -0.00000000000000 5.62045766823052 0.00000000000000
 0.00000000000000 0.00000000000000 5.62045766823052
# Cartesian coordinates in Angstrom.
PRIMCOORD
 10 1
At     1.40511441705763     1.40511441705763     1.40511441705763
At     4.21534325117289     4.21534325117289     1.40511441705763
At     4.21534325117289     1.40511441705763     4.21534325117289
At     1.40511441705763     4.21534325117289     4.21534325117289
O     2.81022883411526     0.00000000000000     0.00000000000000
O    -0.00000000000000     2.81022883411526     0.00000000000000
O     0.00000000000000     0.00000000000000     2.81022883411526
O     2.81022883411526     2.81022883411526     0.00000000000000
O     2.81022883411526     0.00000000000000     2.81022883411526
O    -0.00000000000000     2.81022883411526     2.81022883411526