CRYSTAL
# Primitive lattice vectors in Angstrom
PRIMVEC
 4.14991544529068 0.00000000000000 2.39595479945276
 1.38330514843023 3.91257780362110 2.39595479945276
 0.00000000000000 0.00000000000000 4.79190959890551
# Cartesian coordinates in Angstrom.
PRIMCOORD
 3 1
At     1.38330514843023     0.97814445090528     2.39595479945276
At     4.14991544529068     2.93443335271583     7.18786439835827
O     0.00000000000000     0.00000000000000     0.00000000000000