CRYSTAL
# Primitive lattice vectors in Angstrom
PRIMVEC
 3.42788572635826 0.00000000000000 1.97909074686422
 1.14262857545275 3.23184165632067 1.97909074686422
 0.00000000000000 0.00000000000000 3.95818149372844
# Cartesian coordinates in Angstrom.
PRIMCOORD
 3 1
At     0.00000000000000     0.00000000000000     0.00000000000000
O     1.14262857545275     0.80796041408017     1.97909074686422
O     3.42788572635826     2.42388124224050     5.93727224059266