CRYSTAL
# Primitive lattice vectors in Angstrom
PRIMVEC
 5.53003881293240 0.00000000000000 0.00000000000000
 -0.00000000000000 5.53003881293240 0.00000000000000
 0.00000000000000 0.00000000000000 5.53003881293240
# Cartesian coordinates in Angstrom.
PRIMCOORD
 14 1
At     0.00000000000000     0.00000000000000     0.00000000000000
At     2.76501940646620     2.76501940646620     0.00000000000000
At     2.76501940646620     0.00000000000000     2.76501940646620
At    -0.00000000000000     2.76501940646620     2.76501940646620
O     2.76501940646620     0.00000000000000     0.00000000000000
O    -0.00000000000000     2.76501940646620     0.00000000000000
O     0.00000000000000     0.00000000000000     2.76501940646620
O     2.76501940646620     2.76501940646620     2.76501940646620
O     4.14752910969930     4.14752910969930     1.38250970323310
O     4.14752910969930     1.38250970323310     4.14752910969930
O     1.38250970323310     4.14752910969930     4.14752910969930
O     4.14752910969930     1.38250970323310     1.38250970323310
O     1.38250970323310     4.14752910969930     1.38250970323310
O     1.38250970323310     1.38250970323310     4.14752910969930