CRYSTAL
# Primitive lattice vectors in Angstrom
PRIMVEC
 3.34618404050168 0.00000000000000 1.93192025654168
 1.11539468016723 3.15481256818259 1.93192025654168
 0.00000000000000 0.00000000000000 3.86384051308335
# Cartesian coordinates in Angstrom.
PRIMCOORD
 2 1
At     0.00000000000000     0.00000000000000     0.00000000000000
O     2.23078936033446     1.57740628409129     3.86384051308336