CRYSTAL
# Primitive lattice vectors in Angstrom
PRIMVEC
 5.12063007732451 0.00000000000000 0.00000000000000
 -0.00000000000000 5.12063007732451 0.00000000000000
 0.00000000000000 0.00000000000000 5.12063007732451
# Cartesian coordinates in Angstrom.
PRIMCOORD
 10 1
Au     1.28015751933113     1.28015751933113     1.28015751933113
Au     3.84047255799339     3.84047255799339     1.28015751933113
Au     3.84047255799339     1.28015751933113     3.84047255799339
Au     1.28015751933113     3.84047255799339     3.84047255799339
O     2.56031503866226     0.00000000000000     0.00000000000000
O    -0.00000000000000     2.56031503866226     0.00000000000000
O     0.00000000000000     0.00000000000000     2.56031503866226
O     2.56031503866226     2.56031503866226     0.00000000000000
O     2.56031503866226     0.00000000000000     2.56031503866226
O    -0.00000000000000     2.56031503866226     2.56031503866226