CRYSTAL
# Primitive lattice vectors in Angstrom
PRIMVEC
 2.91178617495411 0.00000000000000 1.68112053193239
 0.97059539165137 2.74525833290039 1.68112053193239
 0.00000000000000 0.00000000000000 3.36224106386477
# Cartesian coordinates in Angstrom.
PRIMCOORD
 2 1
Au     0.00000000000000     0.00000000000000     0.00000000000000
O     1.94119078330274     1.37262916645019     3.36224106386477