CRYSTAL
# Primitive lattice vectors in Angstrom
PRIMVEC
 3.99796901102444 0.00000000000000 0.00000000000000
 -0.00000000000000 3.99796901102444 0.00000000000000
 0.00000000000000 0.00000000000000 3.99796901102444
# Cartesian coordinates in Angstrom.
PRIMCOORD
 4 1
Au     0.00000000000000     0.00000000000000     0.00000000000000
O     1.99898450551222     0.00000000000000     0.00000000000000
O    -0.00000000000000     1.99898450551222     0.00000000000000
O     0.00000000000000     0.00000000000000     1.99898450551222