CRYSTAL
# Primitive lattice vectors in Angstrom
PRIMVEC
 3.56781080138349 0.00000000000000 2.05987652659641
 1.18927026712783 3.36376428219850 2.05987652659641
 0.00000000000000 0.00000000000000 4.11975305319282
# Cartesian coordinates in Angstrom.
PRIMCOORD
 3 1
Au     1.18927026712783     0.84094107054963     2.05987652659641
Au     3.56781080138349     2.52282321164888     6.17962957978924
O     0.00000000000000     0.00000000000000     0.00000000000000