CRYSTAL
# Primitive lattice vectors in Angstrom
PRIMVEC
 3.17985036634518 0.00000000000000 1.83588746499212
 1.05995012211506 2.99799167626827 1.83588746499212
 0.00000000000000 0.00000000000000 3.67177492998424
# Cartesian coordinates in Angstrom.
PRIMCOORD
 3 1
Au     0.00000000000000     0.00000000000000     0.00000000000000
O     1.05995012211506     0.74949791906707     1.83588746499212
O     3.17985036634518     2.24849375720120     5.50766239497636