CRYSTAL
# Primitive lattice vectors in Angstrom
PRIMVEC
 5.31733010977993 0.00000000000000 0.00000000000000
 -0.00000000000000 5.31733010977993 0.00000000000000
 0.00000000000000 0.00000000000000 5.31733010977993
# Cartesian coordinates in Angstrom.
PRIMCOORD
 14 1
Au     0.00000000000000     0.00000000000000     0.00000000000000
Au     2.65866505488996     2.65866505488996     0.00000000000000
Au     2.65866505488996     0.00000000000000     2.65866505488996
Au    -0.00000000000000     2.65866505488996     2.65866505488996
O     2.65866505488996     0.00000000000000     0.00000000000000
O    -0.00000000000000     2.65866505488996     0.00000000000000
O     0.00000000000000     0.00000000000000     2.65866505488996
O     2.65866505488996     2.65866505488996     2.65866505488996
O     3.98799758233494     3.98799758233494     1.32933252744498
O     3.98799758233494     1.32933252744498     3.98799758233495
O     1.32933252744498     3.98799758233494     3.98799758233495
O     3.98799758233494     1.32933252744498     1.32933252744498
O     1.32933252744498     3.98799758233494     1.32933252744498
O     1.32933252744498     1.32933252744498     3.98799758233494