CRYSTAL
# Primitive lattice vectors in Angstrom
PRIMVEC
 3.02147165893814 0.00000000000000 1.74444747563676
 1.00715721964605 2.84867079893083 1.74444747563676
 0.00000000000000 0.00000000000000 3.48889495127352
# Cartesian coordinates in Angstrom.
PRIMCOORD
 3 1
B     1.00715721964605     0.71216769973271     1.74444747563676
B     3.02147165893814     2.13650309919812     5.23334242691027
O     0.00000000000000     0.00000000000000     0.00000000000000