CRYSTAL
# Primitive lattice vectors in Angstrom
PRIMVEC
 4.77314777172801 0.00000000000000 0.00000000000000
 -0.00000000000000 4.77314777172801 0.00000000000000
 0.00000000000000 0.00000000000000 4.77314777172801
# Cartesian coordinates in Angstrom.
PRIMCOORD
 14 1
B     0.00000000000000     0.00000000000000     0.00000000000000
B     2.38657388586401     2.38657388586401     0.00000000000000
B     2.38657388586401     0.00000000000000     2.38657388586401
B    -0.00000000000000     2.38657388586401     2.38657388586401
O     2.38657388586401     0.00000000000000     0.00000000000000
O    -0.00000000000000     2.38657388586401     0.00000000000000
O     0.00000000000000     0.00000000000000     2.38657388586401
O     2.38657388586401     2.38657388586401     2.38657388586401
O     3.57986082879601     3.57986082879601     1.19328694293200
O     3.57986082879601     1.19328694293200     3.57986082879601
O     1.19328694293200     3.57986082879601     3.57986082879601
O     3.57986082879601     1.19328694293200     1.19328694293200
O     1.19328694293200     3.57986082879601     1.19328694293200
O     1.19328694293200     1.19328694293200     3.57986082879601