CRYSTAL
# Primitive lattice vectors in Angstrom
PRIMVEC
 4.15952231148864 0.00000000000000 0.00000000000000
 -0.00000000000000 4.15952231148864 0.00000000000000
 0.00000000000000 0.00000000000000 4.15952231148864
# Cartesian coordinates in Angstrom.
PRIMCOORD
 10 1
B     1.03988057787216     1.03988057787216     1.03988057787216
B     3.11964173361648     3.11964173361648     1.03988057787216
B     3.11964173361648     1.03988057787216     3.11964173361648
B     1.03988057787216     3.11964173361648     3.11964173361648
O     2.07976115574432     0.00000000000000     0.00000000000000
O    -0.00000000000000     2.07976115574432     0.00000000000000
O     0.00000000000000     0.00000000000000     2.07976115574432
O     2.07976115574432     2.07976115574432     0.00000000000000
O     2.07976115574432     0.00000000000000     2.07976115574432
O    -0.00000000000000     2.07976115574432     2.07976115574432