CRYSTAL
# Primitive lattice vectors in Angstrom
PRIMVEC
 2.65483637264110 0.00000000000000 1.53277049439875
 0.88494545754703 2.50300373604696 1.53277049439875
 0.00000000000000 0.00000000000000 3.06554098879750
# Cartesian coordinates in Angstrom.
PRIMCOORD
 3 1
B     0.00000000000000     0.00000000000000     0.00000000000000
O     0.88494545754703     0.62575093401174     1.53277049439875
O     2.65483637264110     1.87725280203522     4.59831148319625