CRYSTAL
# Primitive lattice vectors in Angstrom
PRIMVEC
 3.22775503939876 0.00000000000000 0.00000000000000
 -0.00000000000000 3.22775503939876 0.00000000000000
 0.00000000000000 0.00000000000000 3.22775503939876
# Cartesian coordinates in Angstrom.
PRIMCOORD
 4 1
B     0.00000000000000     0.00000000000000     0.00000000000000
O     1.61387751969938     0.00000000000000     0.00000000000000
O    -0.00000000000000     1.61387751969938     0.00000000000000
O     0.00000000000000     0.00000000000000     1.61387751969938