CRYSTAL
# Primitive lattice vectors in Angstrom
PRIMVEC
 2.38184612445920 0.00000000000000 1.37515950112479
 0.79394870815307 2.24562606179733 1.37515950112479
 0.00000000000000 0.00000000000000 2.75031900224957
# Cartesian coordinates in Angstrom.
PRIMCOORD
 2 1
B     0.00000000000000     0.00000000000000     0.00000000000000
O     1.58789741630613     1.12281303089867     2.75031900224957