CRYSTAL
# Primitive lattice vectors in Angstrom
PRIMVEC
 4.18516833663919 0.00000000000000 2.41630806576254
 1.39505611221306 3.94581454832640 2.41630806576254
 0.00000000000000 0.00000000000000 4.83261613152507
# Cartesian coordinates in Angstrom.
PRIMCOORD
 3 1
Ba     1.39505611221306     0.98645363708160     2.41630806576254
Ba     4.18516833663919     2.95936091124480     7.24892419728761
O     0.00000000000000     0.00000000000000     0.00000000000000