CRYSTAL
# Primitive lattice vectors in Angstrom
PRIMVEC
 6.10096720968145 0.00000000000000 0.00000000000000
 -0.00000000000000 6.10096720968145 0.00000000000000
 0.00000000000000 0.00000000000000 6.10096720968145
# Cartesian coordinates in Angstrom.
PRIMCOORD
 14 1
Ba     0.00000000000000     0.00000000000000     0.00000000000000
Ba     3.05048360484072     3.05048360484072     0.00000000000000
Ba     3.05048360484072     0.00000000000000     3.05048360484072
Ba    -0.00000000000000     3.05048360484072     3.05048360484072
O     3.05048360484072     0.00000000000000     0.00000000000000
O    -0.00000000000000     3.05048360484072     0.00000000000000
O     0.00000000000000     0.00000000000000     3.05048360484072
O     3.05048360484072     3.05048360484072     3.05048360484072
O     4.57572540726109     4.57572540726109     1.52524180242036
O     4.57572540726109     1.52524180242036     4.57572540726109
O     1.52524180242036     4.57572540726109     4.57572540726109
O     4.57572540726109     1.52524180242036     1.52524180242036
O     1.52524180242036     4.57572540726109     1.52524180242036
O     1.52524180242036     1.52524180242036     4.57572540726109