CRYSTAL
# Primitive lattice vectors in Angstrom
PRIMVEC
 6.15960771098954 0.00000000000000 0.00000000000000
 -0.00000000000000 6.15960771098954 0.00000000000000
 0.00000000000000 0.00000000000000 6.15960771098954
# Cartesian coordinates in Angstrom.
PRIMCOORD
 10 1
Ba     1.53990192774738     1.53990192774738     1.53990192774738
Ba     4.61970578324215     4.61970578324215     1.53990192774739
Ba     4.61970578324215     1.53990192774738     4.61970578324215
Ba     1.53990192774738     4.61970578324215     4.61970578324215
O     3.07980385549477     0.00000000000000     0.00000000000000
O    -0.00000000000000     3.07980385549477     0.00000000000000
O     0.00000000000000     0.00000000000000     3.07980385549477
O     3.07980385549477     3.07980385549477     0.00000000000000
O     3.07980385549477     0.00000000000000     3.07980385549477
O    -0.00000000000000     3.07980385549477     3.07980385549477