CRYSTAL
# Primitive lattice vectors in Angstrom
PRIMVEC
 4.50886668589002 0.00000000000000 0.00000000000000
 -0.00000000000000 4.50886668589002 0.00000000000000
 0.00000000000000 0.00000000000000 4.50886668589002
# Cartesian coordinates in Angstrom.
PRIMCOORD
 4 1
Ba     0.00000000000000     0.00000000000000     0.00000000000000
O     2.25443334294501     0.00000000000000     0.00000000000000
O    -0.00000000000000     2.25443334294501     0.00000000000000
O     0.00000000000000     0.00000000000000     2.25443334294501