CRYSTAL
# Primitive lattice vectors in Angstrom
PRIMVEC
 3.81211977612891 0.00000000000000 2.20092837893113
 1.27070659204297 3.59410099252813 2.20092837893113
 0.00000000000000 0.00000000000000 4.40185675786225
# Cartesian coordinates in Angstrom.
PRIMCOORD
 3 1
Ba     0.00000000000000     0.00000000000000     0.00000000000000
O     1.27070659204297     0.89852524813203     2.20092837893112
O     3.81211977612891     2.69557574439610     6.60278513679338