CRYSTAL
# Primitive lattice vectors in Angstrom
PRIMVEC
 3.41292585089068 0.00000000000000 1.97045365873597
 1.13764195029689 3.21773735046889 1.97045365873597
 0.00000000000000 0.00000000000000 3.94090731747193
# Cartesian coordinates in Angstrom.
PRIMCOORD
 2 1
Ba     0.00000000000000     0.00000000000000     0.00000000000000
O     2.27528390059378     1.60886867523444     3.94090731747193