CRYSTAL
# Primitive lattice vectors in Angstrom
PRIMVEC
 2.23320283153713 0.00000000000000 1.28934025594300
 0.74440094384571 2.10548382125987 1.28934025594300
 0.00000000000000 0.00000000000000 2.57868051188599
# Cartesian coordinates in Angstrom.
PRIMCOORD
 2 1
Be     0.00000000000000     0.00000000000000     0.00000000000000
O     1.48880188769142     1.05274191062994     2.57868051188599