CRYSTAL
# Primitive lattice vectors in Angstrom
PRIMVEC
 4.26507183628861 0.00000000000000 0.00000000000000
 -0.00000000000000 4.26507183628861 0.00000000000000
 0.00000000000000 0.00000000000000 4.26507183628861
# Cartesian coordinates in Angstrom.
PRIMCOORD
 10 1
Be     1.06626795907215     1.06626795907215     1.06626795907215
Be     3.19880387721646     3.19880387721646     1.06626795907215
Be     3.19880387721646     1.06626795907215     3.19880387721646
Be     1.06626795907215     3.19880387721646     3.19880387721646
O     2.13253591814431     0.00000000000000     0.00000000000000
O    -0.00000000000000     2.13253591814431     0.00000000000000
O     0.00000000000000     0.00000000000000     2.13253591814431
O     2.13253591814431     2.13253591814431     0.00000000000000
O     2.13253591814431     0.00000000000000     2.13253591814431
O    -0.00000000000000     2.13253591814431     2.13253591814431