CRYSTAL
# Primitive lattice vectors in Angstrom
PRIMVEC
 2.91034471698280 0.00000000000000 1.68028830578462
 0.97011490566093 2.74389931329197 1.68028830578462
 0.00000000000000 0.00000000000000 3.36057661156925
# Cartesian coordinates in Angstrom.
PRIMCOORD
 3 1
Be     0.97011490566093     0.68597482832299     1.68028830578462
Be     2.91034471698280     2.05792448496898     5.04086491735387
O     0.00000000000000     0.00000000000000     0.00000000000000