CRYSTAL
# Primitive lattice vectors in Angstrom
PRIMVEC
 3.39134998037701 0.00000000000000 0.00000000000000
 -0.00000000000000 3.39134998037701 0.00000000000000
 0.00000000000000 0.00000000000000 3.39134998037701
# Cartesian coordinates in Angstrom.
PRIMCOORD
 4 1
Be     0.00000000000000     0.00000000000000     0.00000000000000
O     1.69567499018850     0.00000000000000     0.00000000000000
O    -0.00000000000000     1.69567499018850     0.00000000000000
O     0.00000000000000     0.00000000000000     1.69567499018850