CRYSTAL
# Primitive lattice vectors in Angstrom
PRIMVEC
 4.85791268369385 0.00000000000000 0.00000000000000
 -0.00000000000000 4.85791268369385 0.00000000000000
 0.00000000000000 0.00000000000000 4.85791268369385
# Cartesian coordinates in Angstrom.
PRIMCOORD
 14 1
Be     0.00000000000000     0.00000000000000     0.00000000000000
Be     2.42895634184692     2.42895634184692     0.00000000000000
Be     2.42895634184692     0.00000000000000     2.42895634184692
Be    -0.00000000000000     2.42895634184692     2.42895634184692
O     2.42895634184692     0.00000000000000     0.00000000000000
O    -0.00000000000000     2.42895634184692     0.00000000000000
O     0.00000000000000     0.00000000000000     2.42895634184692
O     2.42895634184692     2.42895634184692     2.42895634184692
O     3.64343451277039     3.64343451277039     1.21447817092346
O     3.64343451277039     1.21447817092346     3.64343451277039
O     1.21447817092346     3.64343451277039     3.64343451277039
O     3.64343451277039     1.21447817092346     1.21447817092346
O     1.21447817092346     3.64343451277039     1.21447817092346
O     1.21447817092346     1.21447817092346     3.64343451277039