CRYSTAL
# Primitive lattice vectors in Angstrom
PRIMVEC
 2.73135956802193 0.00000000000000 1.57695118185112
 0.91045318934064 2.57515049654275 1.57695118185112
 0.00000000000000 0.00000000000000 3.15390236370224
# Cartesian coordinates in Angstrom.
PRIMCOORD
 3 1
Be     0.00000000000000     0.00000000000000     0.00000000000000
O     0.91045318934064     0.64378762413569     1.57695118185112
O     2.73135956802193     1.93136287240706     4.73085354555336