CRYSTAL
# Primitive lattice vectors in Angstrom
PRIMVEC
 5.62522986348542 0.00000000000000 0.00000000000000
 -0.00000000000000 5.62522986348542 0.00000000000000
 0.00000000000000 0.00000000000000 5.62522986348542
# Cartesian coordinates in Angstrom.
PRIMCOORD
 14 1
Bi     0.00000000000000     0.00000000000000     0.00000000000000
Bi     2.81261493174271     2.81261493174271     0.00000000000000
Bi     2.81261493174271     0.00000000000000     2.81261493174271
Bi    -0.00000000000000     2.81261493174271     2.81261493174271
O     2.81261493174271     0.00000000000000     0.00000000000000
O    -0.00000000000000     2.81261493174271     0.00000000000000
O     0.00000000000000     0.00000000000000     2.81261493174271
O     2.81261493174271     2.81261493174271     2.81261493174271
O     4.21892239761406     4.21892239761406     1.40630746587135
O     4.21892239761406     1.40630746587135     4.21892239761406
O     1.40630746587135     4.21892239761406     4.21892239761406
O     4.21892239761406     1.40630746587135     1.40630746587135
O     1.40630746587135     4.21892239761406     1.40630746587135
O     1.40630746587135     1.40630746587135     4.21892239761406