CRYSTAL
# Primitive lattice vectors in Angstrom
PRIMVEC
 5.59292172206695 0.00000000000000 0.00000000000000
 -0.00000000000000 5.59292172206695 0.00000000000000
 0.00000000000000 0.00000000000000 5.59292172206695
# Cartesian coordinates in Angstrom.
PRIMCOORD
 10 1
Bi     1.39823043051674     1.39823043051674     1.39823043051674
Bi     4.19469129155021     4.19469129155021     1.39823043051674
Bi     4.19469129155021     1.39823043051674     4.19469129155021
Bi     1.39823043051674     4.19469129155021     4.19469129155021
O     2.79646086103347     0.00000000000000     0.00000000000000
O    -0.00000000000000     2.79646086103347     0.00000000000000
O     0.00000000000000     0.00000000000000     2.79646086103347
O     2.79646086103347     2.79646086103347     0.00000000000000
O     2.79646086103347     0.00000000000000     2.79646086103347
O    -0.00000000000000     2.79646086103347     2.79646086103347