CRYSTAL
# Primitive lattice vectors in Angstrom
PRIMVEC
 3.38144943278677 0.00000000000000 1.95228074027055
 1.12714981092892 3.18806109888391 1.95228074027055
 0.00000000000000 0.00000000000000 3.90456148054110
# Cartesian coordinates in Angstrom.
PRIMCOORD
 3 1
Bi     0.00000000000000     0.00000000000000     0.00000000000000
O     1.12714981092892     0.79701527472098     1.95228074027055
O     3.38144943278677     2.39104582416293     5.85684222081165