CRYSTAL
# Primitive lattice vectors in Angstrom
PRIMVEC
 3.21058755368035 0.00000000000000 1.85363358837422
 1.07019585122679 3.02697097440068 1.85363358837422
 0.00000000000000 0.00000000000000 3.70726717674843
# Cartesian coordinates in Angstrom.
PRIMCOORD
 2 1
Bi     0.00000000000000     0.00000000000000     0.00000000000000
O     2.14039170245357     1.51348548720034     3.70726717674843