CRYSTAL
# Primitive lattice vectors in Angstrom
PRIMVEC
 4.20023396085905 0.00000000000000 0.00000000000000
 -0.00000000000000 4.20023396085905 0.00000000000000
 0.00000000000000 0.00000000000000 4.20023396085905
# Cartesian coordinates in Angstrom.
PRIMCOORD
 4 1
Bi     0.00000000000000     0.00000000000000     0.00000000000000
O     2.10011698042953     0.00000000000000     0.00000000000000
O    -0.00000000000000     2.10011698042953     0.00000000000000
O     0.00000000000000     0.00000000000000     2.10011698042953