CRYSTAL
# Primitive lattice vectors in Angstrom
PRIMVEC
 3.99217402203937 0.00000000000000 2.30488274627626
 1.33072467401312 3.76385776354775 2.30488274627626
 0.00000000000000 0.00000000000000 4.60976549255252
# Cartesian coordinates in Angstrom.
PRIMCOORD
 3 1
Bi     1.33072467401312     0.94096444088694     2.30488274627626
Bi     3.99217402203937     2.82289332266081     6.91464823882878
O     0.00000000000000     0.00000000000000     0.00000000000000