CRYSTAL
# Primitive lattice vectors in Angstrom
PRIMVEC
 5.28161941758927 0.00000000000000 0.00000000000000
 -0.00000000000000 5.28161941758927 0.00000000000000
 0.00000000000000 0.00000000000000 5.28161941758927
# Cartesian coordinates in Angstrom.
PRIMCOORD
 10 1
Br     1.32040485439732     1.32040485439732     1.32040485439732
Br     3.96121456319195     3.96121456319195     1.32040485439732
Br     3.96121456319195     1.32040485439732     3.96121456319195
Br     1.32040485439732     3.96121456319195     3.96121456319195
O     2.64080970879463     0.00000000000000     0.00000000000000
O    -0.00000000000000     2.64080970879463     0.00000000000000
O     0.00000000000000     0.00000000000000     2.64080970879463
O     2.64080970879463     2.64080970879463     0.00000000000000
O     2.64080970879463     0.00000000000000     2.64080970879463
O    -0.00000000000000     2.64080970879463     2.64080970879463