CRYSTAL
# Primitive lattice vectors in Angstrom
PRIMVEC
 3.23952949821590 0.00000000000000 1.87034322784268
 1.07984316607197 3.05425770138976 1.87034322784268
 0.00000000000000 0.00000000000000 3.74068645568537
# Cartesian coordinates in Angstrom.
PRIMCOORD
 3 1
Br     0.00000000000000     0.00000000000000     0.00000000000000
O     1.07984316607197     0.76356442534744     1.87034322784268
O     3.23952949821590     2.29069327604232     5.61102968352805