CRYSTAL
# Primitive lattice vectors in Angstrom
PRIMVEC
 3.83966265645829 0.00000000000000 2.21683026830355
 1.27988755215276 3.62006866913388 2.21683026830355
 0.00000000000000 0.00000000000000 4.43366053660709
# Cartesian coordinates in Angstrom.
PRIMCOORD
 3 1
Br     1.27988755215276     0.90501716728347     2.21683026830355
Br     3.83966265645829     2.71505150185041     6.65049080491064
O     0.00000000000000     0.00000000000000     0.00000000000000