CRYSTAL
# Primitive lattice vectors in Angstrom
PRIMVEC
 5.38280603492557 0.00000000000000 0.00000000000000
 -0.00000000000000 5.38280603492557 0.00000000000000
 0.00000000000000 0.00000000000000 5.38280603492557
# Cartesian coordinates in Angstrom.
PRIMCOORD
 14 1
Br     0.00000000000000     0.00000000000000     0.00000000000000
Br     2.69140301746279     2.69140301746279     0.00000000000000
Br     2.69140301746279     0.00000000000000     2.69140301746279
Br    -0.00000000000000     2.69140301746279     2.69140301746279
O     2.69140301746279     0.00000000000000     0.00000000000000
O    -0.00000000000000     2.69140301746279     0.00000000000000
O     0.00000000000000     0.00000000000000     2.69140301746279
O     2.69140301746279     2.69140301746279     2.69140301746279
O     4.03710452619418     4.03710452619418     1.34570150873139
O     4.03710452619418     1.34570150873139     4.03710452619418
O     1.34570150873139     4.03710452619418     4.03710452619418
O     4.03710452619418     1.34570150873139     1.34570150873139
O     1.34570150873139     4.03710452619418     1.34570150873139
O     1.34570150873139     1.34570150873139     4.03710452619418