CRYSTAL
# Primitive lattice vectors in Angstrom
PRIMVEC
 3.05724012650578 0.00000000000000 1.76509841001544
 1.01908004216859 2.88239363355714 1.76509841001544
 0.00000000000000 0.00000000000000 3.53019682003087
# Cartesian coordinates in Angstrom.
PRIMCOORD
 2 1
Br     0.00000000000000     0.00000000000000     0.00000000000000
O     2.03816008433718     1.44119681677857     3.53019682003087