CRYSTAL
# Primitive lattice vectors in Angstrom
PRIMVEC
 3.87699360698996 0.00000000000000 0.00000000000000
 -0.00000000000000 3.87699360698996 0.00000000000000
 0.00000000000000 0.00000000000000 3.87699360698996
# Cartesian coordinates in Angstrom.
PRIMCOORD
 4 1
Br     0.00000000000000     0.00000000000000     0.00000000000000
O     1.93849680349498     0.00000000000000     0.00000000000000
O    -0.00000000000000     1.93849680349498     0.00000000000000
O     0.00000000000000     0.00000000000000     1.93849680349498