CRYSTAL
# Primitive lattice vectors in Angstrom
PRIMVEC
 2.97104027472708 0.00000000000000 1.71533090238690
 0.99034675824236 2.80112363391715 1.71533090238690
 0.00000000000000 0.00000000000000 3.43066180477380
# Cartesian coordinates in Angstrom.
PRIMCOORD
 3 1
C     0.99034675824236     0.70028090847929     1.71533090238690
C     2.97104027472708     2.10084272543786     5.14599270716070
O     0.00000000000000     0.00000000000000     0.00000000000000