CRYSTAL
# Primitive lattice vectors in Angstrom
PRIMVEC
 4.89403553707273 0.00000000000000 0.00000000000000
 -0.00000000000000 4.89403553707273 0.00000000000000
 0.00000000000000 0.00000000000000 4.89403553707273
# Cartesian coordinates in Angstrom.
PRIMCOORD
 14 1
C     0.00000000000000     0.00000000000000     0.00000000000000
C     2.44701776853636     2.44701776853636     0.00000000000000
C     2.44701776853636     0.00000000000000     2.44701776853636
C    -0.00000000000000     2.44701776853636     2.44701776853636
O     2.44701776853636     0.00000000000000     0.00000000000000
O    -0.00000000000000     2.44701776853636     0.00000000000000
O     0.00000000000000     0.00000000000000     2.44701776853636
O     2.44701776853636     2.44701776853636     2.44701776853636
O     3.67052665280454     3.67052665280454     1.22350888426818
O     3.67052665280454     1.22350888426818     3.67052665280455
O     1.22350888426818     3.67052665280454     3.67052665280455
O     3.67052665280454     1.22350888426818     1.22350888426818
O     1.22350888426818     3.67052665280454     1.22350888426818
O     1.22350888426818     1.22350888426818     3.67052665280454