CRYSTAL
# Primitive lattice vectors in Angstrom
PRIMVEC
 4.38874684564106 0.00000000000000 0.00000000000000
 -0.00000000000000 4.38874684564106 0.00000000000000
 0.00000000000000 0.00000000000000 4.38874684564106
# Cartesian coordinates in Angstrom.
PRIMCOORD
 10 1
C     1.09718671141027     1.09718671141027     1.09718671141027
C     3.29156013423080     3.29156013423080     1.09718671141027
C     3.29156013423080     1.09718671141027     3.29156013423080
C     1.09718671141027     3.29156013423080     3.29156013423080
O     2.19437342282053     0.00000000000000     0.00000000000000
O    -0.00000000000000     2.19437342282053     0.00000000000000
O     0.00000000000000     0.00000000000000     2.19437342282053
O     2.19437342282053     2.19437342282053     0.00000000000000
O     2.19437342282053     0.00000000000000     2.19437342282053
O    -0.00000000000000     2.19437342282053     2.19437342282053