CRYSTAL
# Primitive lattice vectors in Angstrom
PRIMVEC
 3.20488129415815 0.00000000000000 0.00000000000000
 -0.00000000000000 3.20488129415815 0.00000000000000
 0.00000000000000 0.00000000000000 3.20488129415815
# Cartesian coordinates in Angstrom.
PRIMCOORD
 4 1
C     0.00000000000000     0.00000000000000     0.00000000000000
O     1.60244064707908     0.00000000000000     0.00000000000000
O    -0.00000000000000     1.60244064707908     0.00000000000000
O     0.00000000000000     0.00000000000000     1.60244064707908