CRYSTAL
# Primitive lattice vectors in Angstrom
PRIMVEC
 2.75460271603394 0.00000000000000 1.59037061961267
 0.91820090534465 2.59706434664331 1.59037061961267
 0.00000000000000 0.00000000000000 3.18074123922534
# Cartesian coordinates in Angstrom.
PRIMCOORD
 3 1
C     0.00000000000000     0.00000000000000     0.00000000000000
O     0.91820090534465     0.64926608666083     1.59037061961267
O     2.75460271603394     1.94779825998248     4.77111185883800