CRYSTAL
# Primitive lattice vectors in Angstrom
PRIMVEC
 2.43411572610674 0.00000000000000 1.40533736970643
 0.81137190870225 2.29490631483053 1.40533736970643
 0.00000000000000 0.00000000000000 2.81067473941286
# Cartesian coordinates in Angstrom.
PRIMCOORD
 2 1
C     0.00000000000000     0.00000000000000     0.00000000000000
O     1.62274381740450     1.14745315741526     2.81067473941286