CRYSTAL
# Primitive lattice vectors in Angstrom
PRIMVEC
 3.72114159482566 0.00000000000000 2.14840210146531
 1.24038053160855 3.50832594060873 2.14840210146531
 0.00000000000000 0.00000000000000 4.29680420293062
# Cartesian coordinates in Angstrom.
PRIMCOORD
 3 1
Ca     1.24038053160855     0.87708148515218     2.14840210146531
Ca     3.72114159482566     2.63124445545655     6.44520630439593
O     0.00000000000000     0.00000000000000     0.00000000000000