CRYSTAL
# Primitive lattice vectors in Angstrom
PRIMVEC
 5.42738700321725 0.00000000000000 0.00000000000000
 -0.00000000000000 5.42738700321725 0.00000000000000
 0.00000000000000 0.00000000000000 5.42738700321725
# Cartesian coordinates in Angstrom.
PRIMCOORD
 10 1
Ca     1.35684675080431     1.35684675080431     1.35684675080431
Ca     4.07054025241294     4.07054025241294     1.35684675080431
Ca     4.07054025241294     1.35684675080431     4.07054025241294
Ca     1.35684675080431     4.07054025241294     4.07054025241294
O     2.71369350160863     0.00000000000000     0.00000000000000
O    -0.00000000000000     2.71369350160863     0.00000000000000
O     0.00000000000000     0.00000000000000     2.71369350160863
O     2.71369350160863     2.71369350160863     0.00000000000000
O     2.71369350160863     0.00000000000000     2.71369350160863
O    -0.00000000000000     2.71369350160863     2.71369350160863