CRYSTAL
# Primitive lattice vectors in Angstrom
PRIMVEC
 4.55126759634444 0.00000000000000 0.00000000000000
 -0.00000000000000 4.55126759634444 0.00000000000000
 0.00000000000000 0.00000000000000 4.55126759634444
# Cartesian coordinates in Angstrom.
PRIMCOORD
 4 1
Ca     0.00000000000000     0.00000000000000     0.00000000000000
O     2.27563379817222     0.00000000000000     0.00000000000000
O    -0.00000000000000     2.27563379817222     0.00000000000000
O     0.00000000000000     0.00000000000000     2.27563379817222