CRYSTAL
# Primitive lattice vectors in Angstrom
PRIMVEC
 5.52711818972674 0.00000000000000 0.00000000000000
 -0.00000000000000 5.52711818972674 0.00000000000000
 0.00000000000000 0.00000000000000 5.52711818972674
# Cartesian coordinates in Angstrom.
PRIMCOORD
 14 1
Ca     0.00000000000000     0.00000000000000     0.00000000000000
Ca     2.76355909486337     2.76355909486337     0.00000000000000
Ca     2.76355909486337     0.00000000000000     2.76355909486337
Ca    -0.00000000000000     2.76355909486337     2.76355909486337
O     2.76355909486337     0.00000000000000     0.00000000000000
O    -0.00000000000000     2.76355909486337     0.00000000000000
O     0.00000000000000     0.00000000000000     2.76355909486337
O     2.76355909486337     2.76355909486337     2.76355909486337
O     4.14533864229505     4.14533864229505     1.38177954743168
O     4.14533864229505     1.38177954743168     4.14533864229505
O     1.38177954743168     4.14533864229505     4.14533864229505
O     4.14533864229505     1.38177954743168     1.38177954743168
O     1.38177954743168     4.14533864229505     1.38177954743168
O     1.38177954743168     1.38177954743168     4.14533864229505