CRYSTAL
# Primitive lattice vectors in Angstrom
PRIMVEC
 2.95846659111490 0.00000000000000 1.70807148276870
 0.98615553037163 2.78926905132159 1.70807148276870
 0.00000000000000 0.00000000000000 3.41614296553741
# Cartesian coordinates in Angstrom.
PRIMCOORD
 2 1
Ca     0.00000000000000     0.00000000000000     0.00000000000000
O     1.97231106074327     1.39463452566080     3.41614296553741