CRYSTAL
# Primitive lattice vectors in Angstrom
PRIMVEC
 3.38731213969955 0.00000000000000 1.95566557568482
 1.12910404656652 3.19358851196942 1.95566557568482
 0.00000000000000 0.00000000000000 3.91133115136965
# Cartesian coordinates in Angstrom.
PRIMCOORD
 3 1
Ca     0.00000000000000     0.00000000000000     0.00000000000000
O     1.12910404656652     0.79839712799236     1.95566557568482
O     3.38731213969955     2.39519138397707     5.86699672705447