CRYSTAL
# Primitive lattice vectors in Angstrom
PRIMVEC
 5.44287507025466 0.00000000000000 0.00000000000000
 -0.00000000000000 5.44287507025466 0.00000000000000
 0.00000000000000 0.00000000000000 5.44287507025466
# Cartesian coordinates in Angstrom.
PRIMCOORD
 14 1
Cd     0.00000000000000     0.00000000000000     0.00000000000000
Cd     2.72143753512733     2.72143753512733     0.00000000000000
Cd     2.72143753512733     0.00000000000000     2.72143753512733
Cd    -0.00000000000000     2.72143753512733     2.72143753512733
O     2.72143753512733     0.00000000000000     0.00000000000000
O    -0.00000000000000     2.72143753512733     0.00000000000000
O     0.00000000000000     0.00000000000000     2.72143753512733
O     2.72143753512733     2.72143753512733     2.72143753512733
O     4.08215630269099     4.08215630269099     1.36071876756366
O     4.08215630269099     1.36071876756366     4.08215630269099
O     1.36071876756366     4.08215630269099     4.08215630269099
O     4.08215630269099     1.36071876756366     1.36071876756366
O     1.36071876756366     4.08215630269099     1.36071876756366
O     1.36071876756366     1.36071876756366     4.08215630269099