CRYSTAL
# Primitive lattice vectors in Angstrom
PRIMVEC
 5.27166883519995 0.00000000000000 0.00000000000000
 -0.00000000000000 5.27166883519995 0.00000000000000
 0.00000000000000 0.00000000000000 5.27166883519995
# Cartesian coordinates in Angstrom.
PRIMCOORD
 10 1
Cd     1.31791720879999     1.31791720879999     1.31791720879999
Cd     3.95375162639996     3.95375162639996     1.31791720879999
Cd     3.95375162639996     1.31791720879999     3.95375162639996
Cd     1.31791720879999     3.95375162639996     3.95375162639996
O     2.63583441759997     0.00000000000000     0.00000000000000
O    -0.00000000000000     2.63583441759997     0.00000000000000
O     0.00000000000000     0.00000000000000     2.63583441759997
O     2.63583441759997     2.63583441759997     0.00000000000000
O     2.63583441759997     0.00000000000000     2.63583441759997
O    -0.00000000000000     2.63583441759997     2.63583441759997