CRYSTAL
# Primitive lattice vectors in Angstrom
PRIMVEC
 3.65332174339616 0.00000000000000 2.10924629198609
 1.21777391446539 3.44438477148225 2.10924629198609
 0.00000000000000 0.00000000000000 4.21849258397217
# Cartesian coordinates in Angstrom.
PRIMCOORD
 3 1
Cd     1.21777391446539     0.86109619287056     2.10924629198609
Cd     3.65332174339616     2.58328857861169     6.32773887595826
O     0.00000000000000     0.00000000000000     0.00000000000000