CRYSTAL
# Primitive lattice vectors in Angstrom
PRIMVEC
 3.28341111483323 0.00000000000000 1.89567829100918
 1.09447037161108 3.09562968629581 1.89567829100918
 0.00000000000000 0.00000000000000 3.79135658201835
# Cartesian coordinates in Angstrom.
PRIMCOORD
 3 1
Cd     0.00000000000000     0.00000000000000     0.00000000000000
O     1.09447037161108     0.77390742157395     1.89567829100918
O     3.28341111483323     2.32172226472186     5.68703487302753