CRYSTAL
# Primitive lattice vectors in Angstrom
PRIMVEC
 4.18260116543878 0.00000000000000 0.00000000000000
 -0.00000000000000 4.18260116543878 0.00000000000000
 0.00000000000000 0.00000000000000 4.18260116543878
# Cartesian coordinates in Angstrom.
PRIMCOORD
 4 1
Cd     0.00000000000000     0.00000000000000     0.00000000000000
O     2.09130058271939     0.00000000000000     0.00000000000000
O    -0.00000000000000     2.09130058271939     0.00000000000000
O     0.00000000000000     0.00000000000000     2.09130058271939