CRYSTAL
# Primitive lattice vectors in Angstrom
PRIMVEC
 2.91955292789717 0.00000000000000 1.68560466883479
 0.97318430929906 2.75258089779883 1.68560466883479
 0.00000000000000 0.00000000000000 3.37120933766958
# Cartesian coordinates in Angstrom.
PRIMCOORD
 2 1
Cd     0.00000000000000     0.00000000000000     0.00000000000000
O     1.94636861859811     1.37629044889942     3.37120933766958