CRYSTAL
# Primitive lattice vectors in Angstrom
PRIMVEC
 5.47659396238944 0.00000000000000 0.00000000000000
 -0.00000000000000 5.47659396238944 0.00000000000000
 0.00000000000000 0.00000000000000 5.47659396238944
# Cartesian coordinates in Angstrom.
PRIMCOORD
 10 1
Ce     1.36914849059736     1.36914849059736     1.36914849059736
Ce     4.10744547179208     4.10744547179208     1.36914849059736
Ce     4.10744547179208     1.36914849059736     4.10744547179208
Ce     1.36914849059736     4.10744547179208     4.10744547179208
O     2.73829698119472     0.00000000000000     0.00000000000000
O    -0.00000000000000     2.73829698119472     0.00000000000000
O     0.00000000000000     0.00000000000000     2.73829698119472
O     2.73829698119472     2.73829698119472     0.00000000000000
O     2.73829698119472     0.00000000000000     2.73829698119472
O    -0.00000000000000     2.73829698119472     2.73829698119472