CRYSTAL
# Primitive lattice vectors in Angstrom
PRIMVEC
 3.05489223205130 0.00000000000000 1.76374285252011
 1.01829741068377 2.88018001743677 1.76374285252011
 0.00000000000000 0.00000000000000 3.52748570504022
# Cartesian coordinates in Angstrom.
PRIMCOORD
 2 1
Ce     0.00000000000000     0.00000000000000     0.00000000000000
O     2.03659482136753     1.44009000871839     3.52748570504022