CRYSTAL
# Primitive lattice vectors in Angstrom
PRIMVEC
 3.72120300256684 0.00000000000000 2.14843755524121
 1.24040100085561 3.50838383638234 2.14843755524121
 0.00000000000000 0.00000000000000 4.29687511048242
# Cartesian coordinates in Angstrom.
PRIMCOORD
 3 1
Ce     1.24040100085561     0.87709595909558     2.14843755524121
Ce     3.72120300256684     2.63128787728675     6.44531266572363
O     0.00000000000000     0.00000000000000     0.00000000000000