CRYSTAL
# Primitive lattice vectors in Angstrom
PRIMVEC
 4.33859878780459 0.00000000000000 0.00000000000000
 -0.00000000000000 4.33859878780459 0.00000000000000
 0.00000000000000 0.00000000000000 4.33859878780459
# Cartesian coordinates in Angstrom.
PRIMCOORD
 4 1
Ce     0.00000000000000     0.00000000000000     0.00000000000000
O     2.16929939390230     0.00000000000000     0.00000000000000
O    -0.00000000000000     2.16929939390230     0.00000000000000
O     0.00000000000000     0.00000000000000     2.16929939390230