CRYSTAL
# Primitive lattice vectors in Angstrom
PRIMVEC
 3.34633830534012 0.00000000000000 1.93200932138767
 1.11544610178004 3.15495801046706 1.93200932138767
 0.00000000000000 0.00000000000000 3.86401864277535
# Cartesian coordinates in Angstrom.
PRIMCOORD
 3 1
Ce     0.00000000000000     0.00000000000000     0.00000000000000
O     1.11544610178004     0.78873950261677     1.93200932138767
O     3.34633830534012     2.36621850785030     5.79602796416302