CRYSTAL
# Primitive lattice vectors in Angstrom
PRIMVEC
 5.51882300995246 0.00000000000000 0.00000000000000
 -0.00000000000000 5.51882300995246 0.00000000000000
 0.00000000000000 0.00000000000000 5.51882300995246
# Cartesian coordinates in Angstrom.
PRIMCOORD
 14 1
Ce     0.00000000000000     0.00000000000000     0.00000000000000
Ce     2.75941150497623     2.75941150497623     0.00000000000000
Ce     2.75941150497623     0.00000000000000     2.75941150497623
Ce    -0.00000000000000     2.75941150497623     2.75941150497623
O     2.75941150497623     0.00000000000000     0.00000000000000
O    -0.00000000000000     2.75941150497623     0.00000000000000
O     0.00000000000000     0.00000000000000     2.75941150497623
O     2.75941150497623     2.75941150497623     2.75941150497623
O     4.13911725746435     4.13911725746435     1.37970575248812
O     4.13911725746435     1.37970575248812     4.13911725746435
O     1.37970575248812     4.13911725746435     4.13911725746435
O     4.13911725746435     1.37970575248812     1.37970575248812
O     1.37970575248812     4.13911725746435     1.37970575248812
O     1.37970575248812     1.37970575248812     4.13911725746435