CRYSTAL
# Primitive lattice vectors in Angstrom
PRIMVEC
 5.31721138511004 0.00000000000000 0.00000000000000
 -0.00000000000000 5.31721138511004 0.00000000000000
 0.00000000000000 0.00000000000000 5.31721138511004
# Cartesian coordinates in Angstrom.
PRIMCOORD
 14 1
Cl     0.00000000000000     0.00000000000000     0.00000000000000
Cl     2.65860569255502     2.65860569255502     0.00000000000000
Cl     2.65860569255502     0.00000000000000     2.65860569255502
Cl    -0.00000000000000     2.65860569255502     2.65860569255502
O     2.65860569255502     0.00000000000000     0.00000000000000
O    -0.00000000000000     2.65860569255502     0.00000000000000
O     0.00000000000000     0.00000000000000     2.65860569255502
O     2.65860569255502     2.65860569255502     2.65860569255502
O     3.98790853883253     3.98790853883253     1.32930284627751
O     3.98790853883253     1.32930284627751     3.98790853883253
O     1.32930284627751     3.98790853883253     3.98790853883253
O     3.98790853883253     1.32930284627751     1.32930284627751
O     1.32930284627751     3.98790853883253     1.32930284627751
O     1.32930284627751     1.32930284627751     3.98790853883253