CRYSTAL
# Primitive lattice vectors in Angstrom
PRIMVEC
 3.73259822804393 0.00000000000000 0.00000000000000
 -0.00000000000000 3.73259822804393 0.00000000000000
 0.00000000000000 0.00000000000000 3.73259822804393
# Cartesian coordinates in Angstrom.
PRIMCOORD
 4 1
Cl     0.00000000000000     0.00000000000000     0.00000000000000
O     1.86629911402196     0.00000000000000     0.00000000000000
O    -0.00000000000000     1.86629911402196     0.00000000000000
O     0.00000000000000     0.00000000000000     1.86629911402196