CRYSTAL
# Primitive lattice vectors in Angstrom
PRIMVEC
 5.13312818552920 0.00000000000000 0.00000000000000
 -0.00000000000000 5.13312818552920 0.00000000000000
 0.00000000000000 0.00000000000000 5.13312818552920
# Cartesian coordinates in Angstrom.
PRIMCOORD
 10 1
Cl     1.28328204638230     1.28328204638230     1.28328204638230
Cl     3.84984613914690     3.84984613914690     1.28328204638230
Cl     3.84984613914690     1.28328204638230     3.84984613914690
Cl     1.28328204638230     3.84984613914690     3.84984613914690
O     2.56656409276460     0.00000000000000     0.00000000000000
O    -0.00000000000000     2.56656409276460     0.00000000000000
O     0.00000000000000     0.00000000000000     2.56656409276460
O     2.56656409276460     2.56656409276460     0.00000000000000
O     2.56656409276460     0.00000000000000     2.56656409276460
O    -0.00000000000000     2.56656409276460     2.56656409276460