CRYSTAL
# Primitive lattice vectors in Angstrom
PRIMVEC
 3.17053698773790 0.00000000000000 1.83051038334614
 1.05684566257930 2.98921093870965 1.83051038334614
 0.00000000000000 0.00000000000000 3.66102076669228
# Cartesian coordinates in Angstrom.
PRIMCOORD
 3 1
Cl     0.00000000000000     0.00000000000000     0.00000000000000
O     1.05684566257930     0.74730273467741     1.83051038334614
O     3.17053698773790     2.24190820403224     5.49153115003843