CRYSTAL
# Primitive lattice vectors in Angstrom
PRIMVEC
 3.68671506988925 0.00000000000000 2.12852593802601
 1.22890502329642 3.47586830162843 2.12852593802601
 0.00000000000000 0.00000000000000 4.25705187605202
# Cartesian coordinates in Angstrom.
PRIMCOORD
 3 1
Cl     1.22890502329642     0.86896707540711     2.12852593802601
Cl     3.68671506988925     2.60690122622133     6.38557781407803
O     0.00000000000000     0.00000000000000     0.00000000000000