CRYSTAL
# Primitive lattice vectors in Angstrom
PRIMVEC
 2.91470134382544 0.00000000000000 1.68280360546498
 0.97156711460848 2.74800678047002 1.68280360546498
 0.00000000000000 0.00000000000000 3.36560721092996
# Cartesian coordinates in Angstrom.
PRIMCOORD
 2 1
Cl     0.00000000000000     0.00000000000000     0.00000000000000
O     1.94313422921696     1.37400339023501     3.36560721092996