CRYSTAL
# Primitive lattice vectors in Angstrom
PRIMVEC
 3.22914288401443 0.00000000000000 1.86434651333750
 1.07638096133814 3.04446510760919 1.86434651333750
 0.00000000000000 0.00000000000000 3.72869302667499
# Cartesian coordinates in Angstrom.
PRIMCOORD
 3 1
Cm     0.00000000000000     0.00000000000000     0.00000000000000
O     1.07638096133814     0.76111627690230     1.86434651333750
O     3.22914288401443     2.28334883070689     5.59303954001249