CRYSTAL
# Primitive lattice vectors in Angstrom
PRIMVEC
 5.24856985361823 0.00000000000000 0.00000000000000
 -0.00000000000000 5.24856985361823 0.00000000000000
 0.00000000000000 0.00000000000000 5.24856985361823
# Cartesian coordinates in Angstrom.
PRIMCOORD
 10 1
Cm     1.31214246340456     1.31214246340456     1.31214246340456
Cm     3.93642739021367     3.93642739021367     1.31214246340456
Cm     3.93642739021367     1.31214246340456     3.93642739021368
Cm     1.31214246340456     3.93642739021367     3.93642739021368
O     2.62428492680912     0.00000000000000     0.00000000000000
O    -0.00000000000000     2.62428492680912     0.00000000000000
O     0.00000000000000     0.00000000000000     2.62428492680912
O     2.62428492680912     2.62428492680912     0.00000000000000
O     2.62428492680912     0.00000000000000     2.62428492680912
O    -0.00000000000000     2.62428492680912     2.62428492680912