CRYSTAL
# Primitive lattice vectors in Angstrom
PRIMVEC
 4.06742233705835 0.00000000000000 0.00000000000000
 -0.00000000000000 4.06742233705835 0.00000000000000
 0.00000000000000 0.00000000000000 4.06742233705835
# Cartesian coordinates in Angstrom.
PRIMCOORD
 4 1
Cm     0.00000000000000     0.00000000000000     0.00000000000000
O     2.03371116852917     0.00000000000000     0.00000000000000
O    -0.00000000000000     2.03371116852917     0.00000000000000
O     0.00000000000000     0.00000000000000     2.03371116852917