CRYSTAL
# Primitive lattice vectors in Angstrom
PRIMVEC
 3.47946176544287 0.00000000000000 2.00886818691345
 1.15982058848096 3.28046801229863 2.00886818691345
 0.00000000000000 0.00000000000000 4.01773637382691
# Cartesian coordinates in Angstrom.
PRIMCOORD
 3 1
Cm     1.15982058848096     0.82011700307466     2.00886818691345
Cm     3.47946176544287     2.46035100922397     6.02660456074036
O     0.00000000000000     0.00000000000000     0.00000000000000