CRYSTAL
# Primitive lattice vectors in Angstrom
PRIMVEC
 2.90872606992080 0.00000000000000 1.67935377946765
 0.96957535664027 2.74237323820679 1.67935377946765
 0.00000000000000 0.00000000000000 3.35870755893531
# Cartesian coordinates in Angstrom.
PRIMCOORD
 2 1
Cm     0.00000000000000     0.00000000000000     0.00000000000000
O     1.93915071328053     1.37118661910339     3.35870755893531