CRYSTAL
# Primitive lattice vectors in Angstrom
PRIMVEC
 5.30358160974337 0.00000000000000 0.00000000000000
 -0.00000000000000 5.30358160974337 0.00000000000000
 0.00000000000000 0.00000000000000 5.30358160974337
# Cartesian coordinates in Angstrom.
PRIMCOORD
 14 1
Cm     0.00000000000000     0.00000000000000     0.00000000000000
Cm     2.65179080487169     2.65179080487169     0.00000000000000
Cm     2.65179080487169     0.00000000000000     2.65179080487169
Cm    -0.00000000000000     2.65179080487169     2.65179080487169
O     2.65179080487169     0.00000000000000     0.00000000000000
O    -0.00000000000000     2.65179080487169     0.00000000000000
O     0.00000000000000     0.00000000000000     2.65179080487169
O     2.65179080487169     2.65179080487169     2.65179080487169
O     3.97768620730753     3.97768620730753     1.32589540243584
O     3.97768620730753     1.32589540243584     3.97768620730753
O     1.32589540243584     3.97768620730753     3.97768620730753
O     3.97768620730753     1.32589540243584     1.32589540243584
O     1.32589540243584     3.97768620730753     1.32589540243584
O     1.32589540243584     1.32589540243584     3.97768620730753