CRYSTAL
# Primitive lattice vectors in Angstrom
PRIMVEC
 2.51267639679777 0.00000000000000 1.45069439407761
 0.83755879893259 2.36897402547078 1.45069439407761
 0.00000000000000 0.00000000000000 2.90138878815523
# Cartesian coordinates in Angstrom.
PRIMCOORD
 2 1
Co     0.00000000000000     0.00000000000000     0.00000000000000
O     1.67511759786518     1.18448701273539     2.90138878815523