CRYSTAL
# Primitive lattice vectors in Angstrom
PRIMVEC
 2.84358857264839 0.00000000000000 1.64174662788309
 0.94786285754946 2.68096101683233 1.64174662788309
 0.00000000000000 0.00000000000000 3.28349325576618
# Cartesian coordinates in Angstrom.
PRIMCOORD
 3 1
Co     0.00000000000000     0.00000000000000     0.00000000000000
O     0.94786285754946     0.67024025420808     1.64174662788309
O     2.84358857264839     2.01072076262425     4.92523988364927