CRYSTAL
# Primitive lattice vectors in Angstrom
PRIMVEC
 3.61221190715360 0.00000000000000 0.00000000000000
 -0.00000000000000 3.61221190715360 0.00000000000000
 0.00000000000000 0.00000000000000 3.61221190715360
# Cartesian coordinates in Angstrom.
PRIMCOORD
 4 1
Co     0.00000000000000     0.00000000000000     0.00000000000000
O     1.80610595357680     0.00000000000000     0.00000000000000
O    -0.00000000000000     1.80610595357680     0.00000000000000
O     0.00000000000000     0.00000000000000     1.80610595357680