CRYSTAL
# Primitive lattice vectors in Angstrom
PRIMVEC
 4.49157375491133 0.00000000000000 0.00000000000000
 -0.00000000000000 4.49157375491133 0.00000000000000
 0.00000000000000 0.00000000000000 4.49157375491133
# Cartesian coordinates in Angstrom.
PRIMCOORD
 10 1
Co     1.12289343872783     1.12289343872783     1.12289343872783
Co     3.36868031618350     3.36868031618350     1.12289343872783
Co     3.36868031618350     1.12289343872783     3.36868031618350
Co     1.12289343872783     3.36868031618350     3.36868031618350
O     2.24578687745567     0.00000000000000     0.00000000000000
O    -0.00000000000000     2.24578687745567     0.00000000000000
O     0.00000000000000     0.00000000000000     2.24578687745567
O     2.24578687745567     2.24578687745567     0.00000000000000
O     2.24578687745567     0.00000000000000     2.24578687745567
O    -0.00000000000000     2.24578687745567     2.24578687745567