CRYSTAL
# Primitive lattice vectors in Angstrom
PRIMVEC
 3.01494746486660 0.00000000000000 1.74068073043331
 1.00498248828887 2.84251972977116 1.74068073043331
 0.00000000000000 0.00000000000000 3.48136146086663
# Cartesian coordinates in Angstrom.
PRIMCOORD
 3 1
Co     1.00498248828887     0.71062993244279     1.74068073043331
Co     3.01494746486660     2.13188979732837     5.22204219129994
O     0.00000000000000     0.00000000000000     0.00000000000000