CRYSTAL
# Primitive lattice vectors in Angstrom
PRIMVEC
 4.90347536233705 0.00000000000000 0.00000000000000
 -0.00000000000000 4.90347536233705 0.00000000000000
 0.00000000000000 0.00000000000000 4.90347536233705
# Cartesian coordinates in Angstrom.
PRIMCOORD
 14 1
Co     0.00000000000000     0.00000000000000     0.00000000000000
Co     2.45173768116852     2.45173768116852     0.00000000000000
Co     2.45173768116852     0.00000000000000     2.45173768116852
Co    -0.00000000000000     2.45173768116852     2.45173768116852
O     2.45173768116852     0.00000000000000     0.00000000000000
O    -0.00000000000000     2.45173768116852     0.00000000000000
O     0.00000000000000     0.00000000000000     2.45173768116852
O     2.45173768116852     2.45173768116852     2.45173768116853
O     3.67760652175279     3.67760652175279     1.22586884058426
O     3.67760652175279     1.22586884058426     3.67760652175279
O     1.22586884058426     3.67760652175279     3.67760652175279
O     3.67760652175279     1.22586884058426     1.22586884058426
O     1.22586884058426     3.67760652175279     1.22586884058426
O     1.22586884058426     1.22586884058426     3.67760652175279