CRYSTAL
# Primitive lattice vectors in Angstrom
PRIMVEC
 2.53159695088898 0.00000000000000 1.46161818107539
 0.84386565029633 2.38681249493972 1.46161818107539
 0.00000000000000 0.00000000000000 2.92323636215078
# Cartesian coordinates in Angstrom.
PRIMCOORD
 2 1
Cr     0.00000000000000     0.00000000000000     0.00000000000000
O     1.68773130059266     1.19340624746986     2.92323636215078