CRYSTAL
# Primitive lattice vectors in Angstrom
PRIMVEC
 2.85828097951493 0.00000000000000 1.65022929294253
 0.95276032650498 2.69481315086871 1.65022929294253
 0.00000000000000 0.00000000000000 3.30045858588506
# Cartesian coordinates in Angstrom.
PRIMCOORD
 3 1
Cr     0.00000000000000     0.00000000000000     0.00000000000000
O     0.95276032650498     0.67370328771718     1.65022929294253
O     2.85828097951493     2.02110986315153     4.95068787882759