CRYSTAL
# Primitive lattice vectors in Angstrom
PRIMVEC
 3.60605828293885 0.00000000000000 0.00000000000000
 -0.00000000000000 3.60605828293885 0.00000000000000
 0.00000000000000 0.00000000000000 3.60605828293885
# Cartesian coordinates in Angstrom.
PRIMCOORD
 4 1
Cr     0.00000000000000     0.00000000000000     0.00000000000000
O     1.80302914146942     0.00000000000000     0.00000000000000
O    -0.00000000000000     1.80302914146942     0.00000000000000
O     0.00000000000000     0.00000000000000     1.80302914146942