CRYSTAL
# Primitive lattice vectors in Angstrom
PRIMVEC
 3.03520809668822 0.00000000000000 1.75237821166948
 1.01173603222941 2.86162163664074 1.75237821166948
 0.00000000000000 0.00000000000000 3.50475642333896
# Cartesian coordinates in Angstrom.
PRIMCOORD
 3 1
Cr     1.01173603222941     0.71540540916019     1.75237821166948
Cr     3.03520809668822     2.14621622748056     5.25713463500843
O     0.00000000000000     0.00000000000000     0.00000000000000