CRYSTAL
# Primitive lattice vectors in Angstrom
PRIMVEC
 4.58754451281854 0.00000000000000 0.00000000000000
 -0.00000000000000 4.58754451281854 0.00000000000000
 0.00000000000000 0.00000000000000 4.58754451281854
# Cartesian coordinates in Angstrom.
PRIMCOORD
 10 1
Cr     1.14688612820464     1.14688612820464     1.14688612820464
Cr     3.44065838461391     3.44065838461391     1.14688612820464
Cr     3.44065838461391     1.14688612820464     3.44065838461391
Cr     1.14688612820464     3.44065838461391     3.44065838461391
O     2.29377225640927     0.00000000000000     0.00000000000000
O    -0.00000000000000     2.29377225640927     0.00000000000000
O     0.00000000000000     0.00000000000000     2.29377225640927
O     2.29377225640927     2.29377225640927     0.00000000000000
O     2.29377225640927     0.00000000000000     2.29377225640927
O    -0.00000000000000     2.29377225640927     2.29377225640927