CRYSTAL
# Primitive lattice vectors in Angstrom
PRIMVEC
 4.88057198478919 0.00000000000000 0.00000000000000
 -0.00000000000000 4.88057198478919 0.00000000000000
 0.00000000000000 0.00000000000000 4.88057198478919
# Cartesian coordinates in Angstrom.
PRIMCOORD
 14 1
Cr     0.00000000000000     0.00000000000000     0.00000000000000
Cr     2.44028599239460     2.44028599239460     0.00000000000000
Cr     2.44028599239460     0.00000000000000     2.44028599239460
Cr    -0.00000000000000     2.44028599239460     2.44028599239460
O     2.44028599239460     0.00000000000000     0.00000000000000
O    -0.00000000000000     2.44028599239460     0.00000000000000
O     0.00000000000000     0.00000000000000     2.44028599239460
O     2.44028599239460     2.44028599239460     2.44028599239460
O     3.66042898859189     3.66042898859189     1.22014299619730
O     3.66042898859189     1.22014299619730     3.66042898859189
O     1.22014299619730     3.66042898859189     3.66042898859189
O     3.66042898859189     1.22014299619730     1.22014299619730
O     1.22014299619730     3.66042898859189     1.22014299619730
O     1.22014299619730     1.22014299619730     3.66042898859189