CRYSTAL
# Primitive lattice vectors in Angstrom
PRIMVEC
 6.56839521871673 0.00000000000000 0.00000000000000
 -0.00000000000000 6.56839521871673 0.00000000000000
 0.00000000000000 0.00000000000000 6.56839521871673
# Cartesian coordinates in Angstrom.
PRIMCOORD
 10 1
Cs     1.64209880467918     1.64209880467918     1.64209880467918
Cs     4.92629641403754     4.92629641403754     1.64209880467918
Cs     4.92629641403754     1.64209880467918     4.92629641403754
Cs     1.64209880467918     4.92629641403754     4.92629641403754
O     3.28419760935836     0.00000000000000     0.00000000000000
O    -0.00000000000000     3.28419760935836     0.00000000000000
O     0.00000000000000     0.00000000000000     3.28419760935836
O     3.28419760935836     3.28419760935836     0.00000000000000
O     3.28419760935836     0.00000000000000     3.28419760935836
O    -0.00000000000000     3.28419760935836     3.28419760935836