CRYSTAL
# Primitive lattice vectors in Angstrom
PRIMVEC
 4.45841685864917 0.00000000000000 2.57406817350066
 1.48613895288306 4.20343572547633 2.57406817350066
 0.00000000000000 0.00000000000000 5.14813634700132
# Cartesian coordinates in Angstrom.
PRIMCOORD
 3 1
Cs     1.48613895288306     1.05085893136908     2.57406817350066
Cs     4.45841685864917     3.15257679410725     7.72220452050199
O     0.00000000000000     0.00000000000000     0.00000000000000