CRYSTAL
# Primitive lattice vectors in Angstrom
PRIMVEC
 6.25083748404905 0.00000000000000 0.00000000000000
 -0.00000000000000 6.25083748404905 0.00000000000000
 0.00000000000000 0.00000000000000 6.25083748404905
# Cartesian coordinates in Angstrom.
PRIMCOORD
 14 1
Cs     0.00000000000000     0.00000000000000     0.00000000000000
Cs     3.12541874202452     3.12541874202452     0.00000000000000
Cs     3.12541874202452     0.00000000000000     3.12541874202452
Cs    -0.00000000000000     3.12541874202452     3.12541874202452
O     3.12541874202452     0.00000000000000     0.00000000000000
O    -0.00000000000000     3.12541874202452     0.00000000000000
O     0.00000000000000     0.00000000000000     3.12541874202452
O     3.12541874202452     3.12541874202452     3.12541874202452
O     4.68812811303679     4.68812811303679     1.56270937101226
O     4.68812811303679     1.56270937101226     4.68812811303679
O     1.56270937101226     4.68812811303679     4.68812811303679
O     4.68812811303679     1.56270937101226     1.56270937101226
O     1.56270937101226     4.68812811303679     1.56270937101226
O     1.56270937101226     1.56270937101226     4.68812811303679