CRYSTAL
# Primitive lattice vectors in Angstrom
PRIMVEC
 4.23932759874691 0.00000000000000 0.00000000000000
 -0.00000000000000 4.23932759874691 0.00000000000000
 0.00000000000000 0.00000000000000 4.23932759874691
# Cartesian coordinates in Angstrom.
PRIMCOORD
 4 1
Cs     0.00000000000000     0.00000000000000     0.00000000000000
O     2.11966379937345     0.00000000000000     0.00000000000000
O    -0.00000000000000     2.11966379937345     0.00000000000000
O     0.00000000000000     0.00000000000000     2.11966379937345