CRYSTAL
# Primitive lattice vectors in Angstrom
PRIMVEC
 3.65767840686074 0.00000000000000 2.11176161281013
 1.21922613562025 3.44849227318779 2.11176161281013
 0.00000000000000 0.00000000000000 4.22352322562026
# Cartesian coordinates in Angstrom.
PRIMCOORD
 2 1
Cs     0.00000000000000     0.00000000000000     0.00000000000000
O     2.43845227124050     1.72424613659389     4.22352322562026