CRYSTAL
# Primitive lattice vectors in Angstrom
PRIMVEC
 3.87939176636918 0.00000000000000 2.23976788060527
 1.29313058878973 3.65752563317188 2.23976788060527
 0.00000000000000 0.00000000000000 4.47953576121053
# Cartesian coordinates in Angstrom.
PRIMCOORD
 3 1
Cs     0.00000000000000     0.00000000000000     0.00000000000000
O     1.29313058878973     0.91438140829297     2.23976788060527
O     3.87939176636918     2.74314422487891     6.71930364181580