CRYSTAL
# Primitive lattice vectors in Angstrom
PRIMVEC
 2.95998108359748 0.00000000000000 1.70894587541121
 0.98666036119916 2.79069692852758 1.70894587541121
 0.00000000000000 0.00000000000000 3.41789175082241
# Cartesian coordinates in Angstrom.
PRIMCOORD
 3 1
Cu     0.00000000000000     0.00000000000000     0.00000000000000
O     0.98666036119916     0.69767423213189     1.70894587541121
O     2.95998108359748     2.09302269639568     5.12683762623362