CRYSTAL
# Primitive lattice vectors in Angstrom
PRIMVEC
 5.04601737458837 0.00000000000000 0.00000000000000
 -0.00000000000000 5.04601737458837 0.00000000000000
 0.00000000000000 0.00000000000000 5.04601737458837
# Cartesian coordinates in Angstrom.
PRIMCOORD
 14 1
Cu     0.00000000000000     0.00000000000000     0.00000000000000
Cu     2.52300868729418     2.52300868729418     0.00000000000000
Cu     2.52300868729418     0.00000000000000     2.52300868729418
Cu    -0.00000000000000     2.52300868729418     2.52300868729418
O     2.52300868729418     0.00000000000000     0.00000000000000
O    -0.00000000000000     2.52300868729418     0.00000000000000
O     0.00000000000000     0.00000000000000     2.52300868729418
O     2.52300868729418     2.52300868729418     2.52300868729418
O     3.78451303094127     3.78451303094127     1.26150434364709
O     3.78451303094127     1.26150434364709     3.78451303094127
O     1.26150434364709     3.78451303094127     3.78451303094127
O     3.78451303094127     1.26150434364709     1.26150434364709
O     1.26150434364709     3.78451303094127     1.26150434364709
O     1.26150434364709     1.26150434364709     3.78451303094127