CRYSTAL
# Primitive lattice vectors in Angstrom
PRIMVEC
 3.73257735621330 0.00000000000000 0.00000000000000
 -0.00000000000000 3.73257735621330 0.00000000000000
 0.00000000000000 0.00000000000000 3.73257735621330
# Cartesian coordinates in Angstrom.
PRIMCOORD
 4 1
Cu     0.00000000000000     0.00000000000000     0.00000000000000
O     1.86628867810665     0.00000000000000     0.00000000000000
O    -0.00000000000000     1.86628867810665     0.00000000000000
O     0.00000000000000     0.00000000000000     1.86628867810665