CRYSTAL
# Primitive lattice vectors in Angstrom
PRIMVEC
 2.59871370733427 0.00000000000000 1.50036805847621
 0.86623790244476 2.45009077975799 1.50036805847621
 0.00000000000000 0.00000000000000 3.00073611695242
# Cartesian coordinates in Angstrom.
PRIMCOORD
 2 1
Cu     0.00000000000000     0.00000000000000     0.00000000000000
O     1.73247580488951     1.22504538987900     3.00073611695242