CRYSTAL
# Primitive lattice vectors in Angstrom
PRIMVEC
 4.69970229967645 0.00000000000000 0.00000000000000
 -0.00000000000000 4.69970229967645 0.00000000000000
 0.00000000000000 0.00000000000000 4.69970229967645
# Cartesian coordinates in Angstrom.
PRIMCOORD
 10 1
Cu     1.17492557491911     1.17492557491911     1.17492557491911
Cu     3.52477672475734     3.52477672475734     1.17492557491911
Cu     3.52477672475734     1.17492557491911     3.52477672475734
Cu     1.17492557491911     3.52477672475734     3.52477672475734
O     2.34985114983823     0.00000000000000     0.00000000000000
O    -0.00000000000000     2.34985114983823     0.00000000000000
O     0.00000000000000     0.00000000000000     2.34985114983823
O     2.34985114983823     2.34985114983823     0.00000000000000
O     2.34985114983823     0.00000000000000     2.34985114983823
O    -0.00000000000000     2.34985114983823     2.34985114983823