CRYSTAL
# Primitive lattice vectors in Angstrom
PRIMVEC
 3.16573615693544 0.00000000000000 1.82773862239001
 1.05524538564515 2.98468467202198 1.82773862239001
 0.00000000000000 0.00000000000000 3.65547724478001
# Cartesian coordinates in Angstrom.
PRIMCOORD
 3 1
Cu     1.05524538564515     0.74617116800550     1.82773862239001
Cu     3.16573615693544     2.23851350401649     5.48321586717002
O     0.00000000000000     0.00000000000000     0.00000000000000