CRYSTAL
# Primitive lattice vectors in Angstrom
PRIMVEC
 3.23753861266834 0.00000000000000 1.86919378953587
 1.07917953755611 3.05238067649476 1.86919378953587
 0.00000000000000 0.00000000000000 3.73838757907174
# Cartesian coordinates in Angstrom.
PRIMCOORD
 3 1
Dy     0.00000000000000     0.00000000000000     0.00000000000000
O     1.07917953755611     0.76309516912369     1.86919378953587
O     3.23753861266834     2.28928550737107     5.60758136860762