CRYSTAL
# Primitive lattice vectors in Angstrom
PRIMVEC
 5.37556224714287 0.00000000000000 0.00000000000000
 -0.00000000000000 5.37556224714287 0.00000000000000
 0.00000000000000 0.00000000000000 5.37556224714287
# Cartesian coordinates in Angstrom.
PRIMCOORD
 14 1
Dy     0.00000000000000     0.00000000000000     0.00000000000000
Dy     2.68778112357143     2.68778112357143     0.00000000000000
Dy     2.68778112357143     0.00000000000000     2.68778112357143
Dy    -0.00000000000000     2.68778112357143     2.68778112357143
O     2.68778112357143     0.00000000000000     0.00000000000000
O    -0.00000000000000     2.68778112357143     0.00000000000000
O     0.00000000000000     0.00000000000000     2.68778112357143
O     2.68778112357143     2.68778112357143     2.68778112357143
O     4.03167168535715     4.03167168535715     1.34389056178572
O     4.03167168535715     1.34389056178572     4.03167168535715
O     1.34389056178572     4.03167168535715     4.03167168535715
O     4.03167168535715     1.34389056178572     1.34389056178572
O     1.34389056178572     4.03167168535715     1.34389056178572
O     1.34389056178572     1.34389056178572     4.03167168535715