CRYSTAL
# Primitive lattice vectors in Angstrom
PRIMVEC
 2.95791112714156 0.00000000000000 1.70775078549417
 0.98597037571385 2.78874535486525 1.70775078549417
 0.00000000000000 0.00000000000000 3.41550157098834
# Cartesian coordinates in Angstrom.
PRIMCOORD
 2 1
Dy     0.00000000000000     0.00000000000000     0.00000000000000
O     1.97194075142771     1.39437267743263     3.41550157098834