CRYSTAL
# Primitive lattice vectors in Angstrom
PRIMVEC
 5.29611032671446 0.00000000000000 0.00000000000000
 -0.00000000000000 5.29611032671446 0.00000000000000
 0.00000000000000 0.00000000000000 5.29611032671446
# Cartesian coordinates in Angstrom.
PRIMCOORD
 10 1
Dy     1.32402758167862     1.32402758167862     1.32402758167862
Dy     3.97208274503585     3.97208274503585     1.32402758167862
Dy     3.97208274503585     1.32402758167862     3.97208274503585
Dy     1.32402758167862     3.97208274503585     3.97208274503585
O     2.64805516335723     0.00000000000000     0.00000000000000
O    -0.00000000000000     2.64805516335723     0.00000000000000
O     0.00000000000000     0.00000000000000     2.64805516335723
O     2.64805516335723     2.64805516335723     0.00000000000000
O     2.64805516335723     0.00000000000000     2.64805516335723
O    -0.00000000000000     2.64805516335723     2.64805516335723