CRYSTAL
# Primitive lattice vectors in Angstrom
PRIMVEC
 4.15608118311845 0.00000000000000 0.00000000000000
 -0.00000000000000 4.15608118311845 0.00000000000000
 0.00000000000000 0.00000000000000 4.15608118311845
# Cartesian coordinates in Angstrom.
PRIMCOORD
 4 1
Dy     0.00000000000000     0.00000000000000     0.00000000000000
O     2.07804059155922     0.00000000000000     0.00000000000000
O    -0.00000000000000     2.07804059155922     0.00000000000000
O     0.00000000000000     0.00000000000000     2.07804059155922