CRYSTAL
# Primitive lattice vectors in Angstrom
PRIMVEC
 3.62334110696968 0.00000000000000 2.09193696347478
 1.20778036898989 3.41611875638697 2.09193696347478
 0.00000000000000 0.00000000000000 4.18387392694956
# Cartesian coordinates in Angstrom.
PRIMCOORD
 3 1
Dy     1.20778036898989     0.85402968909674     2.09193696347478
Dy     3.62334110696968     2.56208906729023     6.27581089042434
O     0.00000000000000     0.00000000000000     0.00000000000000