CRYSTAL
# Primitive lattice vectors in Angstrom
PRIMVEC
 3.66980510076483 0.00000000000000 2.11876296280004
 1.22326836692161 3.45992542984505 2.11876296280004
 0.00000000000000 0.00000000000000 4.23752592560007
# Cartesian coordinates in Angstrom.
PRIMCOORD
 3 1
Er     1.22326836692161     0.86498135746126     2.11876296280003
Er     3.66980510076483     2.59494407238379     6.35628888840010
O     0.00000000000000     0.00000000000000     0.00000000000000