CRYSTAL
# Primitive lattice vectors in Angstrom
PRIMVEC
 2.95263554082202 0.00000000000000 1.70470492431245
 0.98421184694067 2.78377148438354 1.70470492431245
 0.00000000000000 0.00000000000000 3.40940984862489
# Cartesian coordinates in Angstrom.
PRIMCOORD
 2 1
Er     0.00000000000000     0.00000000000000     0.00000000000000
O     1.96842369388134     1.39188574219177     3.40940984862489