CRYSTAL
# Primitive lattice vectors in Angstrom
PRIMVEC
 4.18274120233674 0.00000000000000 0.00000000000000
 -0.00000000000000 4.18274120233674 0.00000000000000
 0.00000000000000 0.00000000000000 4.18274120233674
# Cartesian coordinates in Angstrom.
PRIMCOORD
 4 1
Er     0.00000000000000     0.00000000000000     0.00000000000000
O     2.09137060116837     0.00000000000000     0.00000000000000
O    -0.00000000000000     2.09137060116837     0.00000000000000
O     0.00000000000000     0.00000000000000     2.09137060116837