CRYSTAL
# Primitive lattice vectors in Angstrom
PRIMVEC
 3.23634481787428 0.00000000000000 1.86850455179017
 1.07878160595809 3.05125515596913 1.86850455179017
 0.00000000000000 0.00000000000000 3.73700910358033
# Cartesian coordinates in Angstrom.
PRIMCOORD
 3 1
Er     0.00000000000000     0.00000000000000     0.00000000000000
O     1.07878160595809     0.76281378899228     1.86850455179017
O     3.23634481787428     2.28844136697685     5.60551365537050