CRYSTAL
# Primitive lattice vectors in Angstrom
PRIMVEC
 5.38339865379834 0.00000000000000 0.00000000000000
 -0.00000000000000 5.38339865379834 0.00000000000000
 0.00000000000000 0.00000000000000 5.38339865379834
# Cartesian coordinates in Angstrom.
PRIMCOORD
 14 1
Er     0.00000000000000     0.00000000000000     0.00000000000000
Er     2.69169932689917     2.69169932689917     0.00000000000000
Er     2.69169932689917     0.00000000000000     2.69169932689917
Er    -0.00000000000000     2.69169932689917     2.69169932689917
O     2.69169932689917     0.00000000000000     0.00000000000000
O    -0.00000000000000     2.69169932689917     0.00000000000000
O     0.00000000000000     0.00000000000000     2.69169932689917
O     2.69169932689917     2.69169932689917     2.69169932689917
O     4.03754899034876     4.03754899034876     1.34584966344959
O     4.03754899034876     1.34584966344959     4.03754899034876
O     1.34584966344959     4.03754899034876     4.03754899034876
O     4.03754899034876     1.34584966344959     1.34584966344959
O     1.34584966344959     4.03754899034876     1.34584966344959
O     1.34584966344959     1.34584966344959     4.03754899034876