CRYSTAL
# Primitive lattice vectors in Angstrom
PRIMVEC
 5.28201311843797 0.00000000000000 0.00000000000000
 -0.00000000000000 5.28201311843797 0.00000000000000
 0.00000000000000 0.00000000000000 5.28201311843797
# Cartesian coordinates in Angstrom.
PRIMCOORD
 10 1
Er     1.32050327960949     1.32050327960949     1.32050327960949
Er     3.96150983882848     3.96150983882848     1.32050327960949
Er     3.96150983882848     1.32050327960949     3.96150983882848
Er     1.32050327960949     3.96150983882848     3.96150983882848
O     2.64100655921898     0.00000000000000     0.00000000000000
O    -0.00000000000000     2.64100655921898     0.00000000000000
O     0.00000000000000     0.00000000000000     2.64100655921898
O     2.64100655921898     2.64100655921898     0.00000000000000
O     2.64100655921898     0.00000000000000     2.64100655921898
O    -0.00000000000000     2.64100655921898     2.64100655921898