CRYSTAL
# Primitive lattice vectors in Angstrom
PRIMVEC
 2.96936622923187 0.00000000000000 1.71436439176960
 0.98978874307729 2.79954532868824 1.71436439176960
 0.00000000000000 0.00000000000000 3.42872878353920
# Cartesian coordinates in Angstrom.
PRIMCOORD
 2 1
Eu     0.00000000000000     0.00000000000000     0.00000000000000
O     1.97957748615458     1.39977266434412     3.42872878353920