CRYSTAL
# Primitive lattice vectors in Angstrom
PRIMVEC
 5.34041989982472 0.00000000000000 0.00000000000000
 -0.00000000000000 5.34041989982472 0.00000000000000
 0.00000000000000 0.00000000000000 5.34041989982472
# Cartesian coordinates in Angstrom.
PRIMCOORD
 10 1
Eu     1.33510497495618     1.33510497495618     1.33510497495618
Eu     4.00531492486854     4.00531492486854     1.33510497495618
Eu     4.00531492486854     1.33510497495618     4.00531492486854
Eu     1.33510497495618     4.00531492486854     4.00531492486854
O     2.67020994991236     0.00000000000000     0.00000000000000
O    -0.00000000000000     2.67020994991236     0.00000000000000
O     0.00000000000000     0.00000000000000     2.67020994991236
O     2.67020994991236     2.67020994991236     0.00000000000000
O     2.67020994991236     0.00000000000000     2.67020994991236
O    -0.00000000000000     2.67020994991236     2.67020994991236