CRYSTAL
# Primitive lattice vectors in Angstrom
PRIMVEC
 3.25914901089517 0.00000000000000 1.88167055876943
 1.08638300363172 3.07275515533520 1.88167055876943
 0.00000000000000 0.00000000000000 3.76334111753885
# Cartesian coordinates in Angstrom.
PRIMCOORD
 3 1
Eu     0.00000000000000     0.00000000000000     0.00000000000000
O     1.08638300363172     0.76818878883380     1.88167055876943
O     3.25914901089517     2.30456636650140     5.64501167630828