CRYSTAL
# Primitive lattice vectors in Angstrom
PRIMVEC
 4.14255843149208 0.00000000000000 0.00000000000000
 -0.00000000000000 4.14255843149208 0.00000000000000
 0.00000000000000 0.00000000000000 4.14255843149208
# Cartesian coordinates in Angstrom.
PRIMCOORD
 4 1
Eu     0.00000000000000     0.00000000000000     0.00000000000000
O     2.07127921574604     0.00000000000000     0.00000000000000
O    -0.00000000000000     2.07127921574604     0.00000000000000
O     0.00000000000000     0.00000000000000     2.07127921574604