CRYSTAL
# Primitive lattice vectors in Angstrom
PRIMVEC
 5.39179917479287 0.00000000000000 0.00000000000000
 -0.00000000000000 5.39179917479287 0.00000000000000
 0.00000000000000 0.00000000000000 5.39179917479287
# Cartesian coordinates in Angstrom.
PRIMCOORD
 14 1
Eu     0.00000000000000     0.00000000000000     0.00000000000000
Eu     2.69589958739643     2.69589958739643     0.00000000000000
Eu     2.69589958739643     0.00000000000000     2.69589958739643
Eu    -0.00000000000000     2.69589958739643     2.69589958739643
O     2.69589958739643     0.00000000000000     0.00000000000000
O    -0.00000000000000     2.69589958739643     0.00000000000000
O     0.00000000000000     0.00000000000000     2.69589958739643
O     2.69589958739643     2.69589958739643     2.69589958739643
O     4.04384938109465     4.04384938109465     1.34794979369822
O     4.04384938109465     1.34794979369822     4.04384938109465
O     1.34794979369822     4.04384938109465     4.04384938109465
O     4.04384938109465     1.34794979369822     1.34794979369822
O     1.34794979369822     4.04384938109465     1.34794979369822
O     1.34794979369822     1.34794979369822     4.04384938109465