CRYSTAL
# Primitive lattice vectors in Angstrom
PRIMVEC
 3.58112381085160 0.00000000000000 2.06756279619655
 1.19370793695053 3.37631590789570 2.06756279619655
 0.00000000000000 0.00000000000000 4.13512559239310
# Cartesian coordinates in Angstrom.
PRIMCOORD
 3 1
Eu     1.19370793695053     0.84407897697393     2.06756279619655
Eu     3.58112381085160     2.53223693092178     6.20268838858965
O     0.00000000000000     0.00000000000000     0.00000000000000