CRYSTAL
# Primitive lattice vectors in Angstrom
PRIMVEC
 4.95383177119152 0.00000000000000 0.00000000000000
 -0.00000000000000 4.95383177119152 0.00000000000000
 0.00000000000000 0.00000000000000 4.95383177119152
# Cartesian coordinates in Angstrom.
PRIMCOORD
 14 1
O     2.47691588559576     0.00000000000000     0.00000000000000
O    -0.00000000000000     2.47691588559576     0.00000000000000
O     0.00000000000000     0.00000000000000     2.47691588559576
O     2.47691588559576     2.47691588559576     2.47691588559576
O     3.71537382839364     3.71537382839364     1.23845794279788
O     3.71537382839364     1.23845794279788     3.71537382839364
O     1.23845794279788     3.71537382839364     3.71537382839364
O     3.71537382839364     1.23845794279788     1.23845794279788
O     1.23845794279788     3.71537382839364     1.23845794279788
O     1.23845794279788     1.23845794279788     3.71537382839364
F     0.00000000000000     0.00000000000000     0.00000000000000
F     2.47691588559576     2.47691588559576     0.00000000000000
F     2.47691588559576     0.00000000000000     2.47691588559576
F    -0.00000000000000     2.47691588559576     2.47691588559576