CRYSTAL
# Primitive lattice vectors in Angstrom
PRIMVEC
 4.82940612151401 0.00000000000000 0.00000000000000
 -0.00000000000000 4.82940612151401 0.00000000000000
 0.00000000000000 0.00000000000000 4.82940612151401
# Cartesian coordinates in Angstrom.
PRIMCOORD
 10 1
O     2.41470306075700     0.00000000000000     0.00000000000000
O    -0.00000000000000     2.41470306075700     0.00000000000000
O     0.00000000000000     0.00000000000000     2.41470306075700
O     2.41470306075700     2.41470306075700     0.00000000000000
O     2.41470306075700     0.00000000000000     2.41470306075700
O    -0.00000000000000     2.41470306075700     2.41470306075700
F     1.20735153037850     1.20735153037850     1.20735153037850
F     3.62205459113551     3.62205459113551     1.20735153037850
F     3.62205459113551     1.20735153037850     3.62205459113551
F     1.20735153037850     3.62205459113551     3.62205459113551