CRYSTAL
# Primitive lattice vectors in Angstrom
PRIMVEC
 3.05243010558507 0.00000000000000 1.76232134314206
 1.01747670186169 2.87785870234289 1.76232134314206
 0.00000000000000 0.00000000000000 3.52464268628411
# Cartesian coordinates in Angstrom.
PRIMCOORD
 3 1
O     0.00000000000000     0.00000000000000     0.00000000000000
F     1.01747670186169     0.71946467558572     1.76232134314206
F     3.05243010558507     2.15839402675717     5.28696402942617