CRYSTAL
# Primitive lattice vectors in Angstrom
PRIMVEC
 3.76346590429545 0.00000000000000 0.00000000000000
 -0.00000000000000 3.76346590429545 0.00000000000000
 0.00000000000000 0.00000000000000 3.76346590429545
# Cartesian coordinates in Angstrom.
PRIMCOORD
 4 1
O     1.88173295214773     0.00000000000000     0.00000000000000
O    -0.00000000000000     1.88173295214773     0.00000000000000
O     0.00000000000000     0.00000000000000     1.88173295214773
F     0.00000000000000     0.00000000000000     0.00000000000000