CRYSTAL
# Primitive lattice vectors in Angstrom
PRIMVEC
 2.58726878849851 0.00000000000000 1.49376033150553
 0.86242292949950 2.43930040679946 1.49376033150553
 0.00000000000000 0.00000000000000 2.98752066301106
# Cartesian coordinates in Angstrom.
PRIMCOORD
 2 1
O     1.72484585899900     1.21965020339973     2.98752066301106
F     0.00000000000000     0.00000000000000     0.00000000000000