CRYSTAL
# Primitive lattice vectors in Angstrom
PRIMVEC
 3.04822500532029 0.00000000000000 1.75989352737222
 1.01607500177343 2.87389409579250 1.75989352737222
 0.00000000000000 0.00000000000000 3.51978705474444
# Cartesian coordinates in Angstrom.
PRIMCOORD
 3 1
O     1.01607500177343     0.71847352394813     1.75989352737222
O     3.04822500532029     2.15542057184438     5.27968058211666
F     0.00000000000000     0.00000000000000     0.00000000000000