CRYSTAL
# Primitive lattice vectors in Angstrom
PRIMVEC
 2.50612696701706 0.00000000000000 1.44691307903068
 0.83537565567235 2.36279916385632 1.44691307903068
 0.00000000000000 0.00000000000000 2.89382615806136
# Cartesian coordinates in Angstrom.
PRIMCOORD
 2 1
Fe     0.00000000000000     0.00000000000000     0.00000000000000
O     1.67075131134471     1.18139958192816     2.89382615806136