CRYSTAL
# Primitive lattice vectors in Angstrom
PRIMVEC
 3.58146074722574 0.00000000000000 0.00000000000000
 -0.00000000000000 3.58146074722574 0.00000000000000
 0.00000000000000 0.00000000000000 3.58146074722574
# Cartesian coordinates in Angstrom.
PRIMCOORD
 4 1
Fe     0.00000000000000     0.00000000000000     0.00000000000000
O     1.79073037361287     0.00000000000000     0.00000000000000
O    -0.00000000000000     1.79073037361287     0.00000000000000
O     0.00000000000000     0.00000000000000     1.79073037361287