CRYSTAL
# Primitive lattice vectors in Angstrom
PRIMVEC
 4.49564860893792 0.00000000000000 0.00000000000000
 -0.00000000000000 4.49564860893792 0.00000000000000
 0.00000000000000 0.00000000000000 4.49564860893792
# Cartesian coordinates in Angstrom.
PRIMCOORD
 10 1
Fe     1.12391215223448     1.12391215223448     1.12391215223448
Fe     3.37173645670344     3.37173645670344     1.12391215223448
Fe     3.37173645670344     1.12391215223448     3.37173645670344
Fe     1.12391215223448     3.37173645670344     3.37173645670344
O     2.24782430446896     0.00000000000000     0.00000000000000
O    -0.00000000000000     2.24782430446896     0.00000000000000
O     0.00000000000000     0.00000000000000     2.24782430446896
O     2.24782430446896     2.24782430446896     0.00000000000000
O     2.24782430446896     0.00000000000000     2.24782430446896
O    -0.00000000000000     2.24782430446896     2.24782430446896