CRYSTAL
# Primitive lattice vectors in Angstrom
PRIMVEC
 3.00000159899458 0.00000000000000 1.73205173074883
 1.00000053299819 2.82842863229274 1.73205173074883
 0.00000000000000 0.00000000000000 3.46410346149765
# Cartesian coordinates in Angstrom.
PRIMCOORD
 3 1
Fe     1.00000053299819     0.70710715807318     1.73205173074883
Fe     3.00000159899458     2.12132147421955     5.19615519224648
O     0.00000000000000     0.00000000000000     0.00000000000000