CRYSTAL
# Primitive lattice vectors in Angstrom
PRIMVEC
 2.81134953408993 0.00000000000000 1.62313341029295
 0.93711651136331 2.65056575978751 1.62313341029295
 0.00000000000000 0.00000000000000 3.24626682058590
# Cartesian coordinates in Angstrom.
PRIMCOORD
 3 1
Fe     0.00000000000000     0.00000000000000     0.00000000000000
O     0.93711651136331     0.66264143994688     1.62313341029295
O     2.81134953408993     1.98792431984063     4.86940023087886