CRYSTAL
# Primitive lattice vectors in Angstrom
PRIMVEC
 4.87707513428745 0.00000000000000 0.00000000000000
 -0.00000000000000 4.87707513428745 0.00000000000000
 0.00000000000000 0.00000000000000 4.87707513428745
# Cartesian coordinates in Angstrom.
PRIMCOORD
 14 1
Fe     0.00000000000000     0.00000000000000     0.00000000000000
Fe     2.43853756714372     2.43853756714372     0.00000000000000
Fe     2.43853756714372     0.00000000000000     2.43853756714372
Fe    -0.00000000000000     2.43853756714372     2.43853756714372
O     2.43853756714372     0.00000000000000     0.00000000000000
O    -0.00000000000000     2.43853756714372     0.00000000000000
O     0.00000000000000     0.00000000000000     2.43853756714372
O     2.43853756714372     2.43853756714372     2.43853756714372
O     3.65780635071558     3.65780635071559     1.21926878357186
O     3.65780635071559     1.21926878357186     3.65780635071559
O     1.21926878357186     3.65780635071559     3.65780635071559
O     3.65780635071559     1.21926878357186     1.21926878357186
O     1.21926878357186     3.65780635071559     1.21926878357186
O     1.21926878357186     1.21926878357186     3.65780635071559