CRYSTAL
# Primitive lattice vectors in Angstrom
PRIMVEC
 4.61055209392840 0.00000000000000 2.66190349254235
 1.53685069797613 4.34687020084081 2.66190349254235
 0.00000000000000 0.00000000000000 5.32380698508471
# Cartesian coordinates in Angstrom.
PRIMCOORD
 3 1
Fr     1.53685069797613     1.08671755021020     2.66190349254235
Fr     4.61055209392840     3.26015265063061     7.98571047762706
O     0.00000000000000     0.00000000000000     0.00000000000000