CRYSTAL
# Primitive lattice vectors in Angstrom
PRIMVEC
 3.70533483489028 0.00000000000000 2.13927606436160
 1.23511161163009 3.49342318442354 2.13927606436160
 0.00000000000000 0.00000000000000 4.27855212872321
# Cartesian coordinates in Angstrom.
PRIMCOORD
 2 1
Fr     0.00000000000000     0.00000000000000     0.00000000000000
O     2.47022322326019     1.74671159221177     4.27855212872321