CRYSTAL
# Primitive lattice vectors in Angstrom
PRIMVEC
 4.30043296696479 0.00000000000000 0.00000000000000
 -0.00000000000000 4.30043296696479 0.00000000000000
 0.00000000000000 0.00000000000000 4.30043296696479
# Cartesian coordinates in Angstrom.
PRIMCOORD
 4 1
Fr     0.00000000000000     0.00000000000000     0.00000000000000
O     2.15021648348239     0.00000000000000     0.00000000000000
O    -0.00000000000000     2.15021648348239     0.00000000000000
O     0.00000000000000     0.00000000000000     2.15021648348239