CRYSTAL
# Primitive lattice vectors in Angstrom
PRIMVEC
 3.78248982885390 0.00000000000000 2.18382152089582
 1.26082994295130 3.56616561033565 2.18382152089582
 0.00000000000000 0.00000000000000 4.36764304179164
# Cartesian coordinates in Angstrom.
PRIMCOORD
 3 1
Fr     0.00000000000000     0.00000000000000     0.00000000000000
O     1.26082994295130     0.89154140258391     2.18382152089582
O     3.78248982885390     2.67462420775174     6.55146456268747