CRYSTAL
# Primitive lattice vectors in Angstrom
PRIMVEC
 6.40012865635554 0.00000000000000 0.00000000000000
 -0.00000000000000 6.40012865635554 0.00000000000000
 0.00000000000000 0.00000000000000 6.40012865635554
# Cartesian coordinates in Angstrom.
PRIMCOORD
 10 1
Fr     1.60003216408888     1.60003216408888     1.60003216408888
Fr     4.80009649226665     4.80009649226665     1.60003216408889
Fr     4.80009649226665     1.60003216408888     4.80009649226665
Fr     1.60003216408888     4.80009649226665     4.80009649226665
O     3.20006432817777     0.00000000000000     0.00000000000000
O    -0.00000000000000     3.20006432817777     0.00000000000000
O     0.00000000000000     0.00000000000000     3.20006432817777
O     3.20006432817777     3.20006432817777     0.00000000000000
O     3.20006432817777     0.00000000000000     3.20006432817777
O    -0.00000000000000     3.20006432817777     3.20006432817777