CRYSTAL
# Primitive lattice vectors in Angstrom
PRIMVEC
 6.12631436059605 0.00000000000000 0.00000000000000
 -0.00000000000000 6.12631436059605 0.00000000000000
 0.00000000000000 0.00000000000000 6.12631436059605
# Cartesian coordinates in Angstrom.
PRIMCOORD
 14 1
Fr     0.00000000000000     0.00000000000000     0.00000000000000
Fr     3.06315718029803     3.06315718029803     0.00000000000000
Fr     3.06315718029803     0.00000000000000     3.06315718029803
Fr    -0.00000000000000     3.06315718029803     3.06315718029803
O     3.06315718029803     0.00000000000000     0.00000000000000
O    -0.00000000000000     3.06315718029803     0.00000000000000
O     0.00000000000000     0.00000000000000     3.06315718029803
O     3.06315718029803     3.06315718029803     3.06315718029803
O     4.59473577044704     4.59473577044704     1.53157859014901
O     4.59473577044704     1.53157859014901     4.59473577044704
O     1.53157859014901     4.59473577044704     4.59473577044704
O     4.59473577044704     1.53157859014901     1.53157859014901
O     1.53157859014901     4.59473577044704     1.53157859014901
O     1.53157859014901     1.53157859014901     4.59473577044704