CRYSTAL
# Primitive lattice vectors in Angstrom
PRIMVEC
 3.65252581843834 0.00000000000000 2.10878676449743
 1.21750860614611 3.44363436623559 2.10878676449743
 0.00000000000000 0.00000000000000 4.21757352899486
# Cartesian coordinates in Angstrom.
PRIMCOORD
 3 1
Ga     1.21750860614611     0.86090859155890     2.10878676449743
Ga     3.65252581843834     2.58272577467669     6.32636029349230
O     0.00000000000000     0.00000000000000     0.00000000000000