CRYSTAL
# Primitive lattice vectors in Angstrom
PRIMVEC
 5.13849610577963 0.00000000000000 0.00000000000000
 -0.00000000000000 5.13849610577963 0.00000000000000
 0.00000000000000 0.00000000000000 5.13849610577963
# Cartesian coordinates in Angstrom.
PRIMCOORD
 14 1
Ga     0.00000000000000     0.00000000000000     0.00000000000000
Ga     2.56924805288981     2.56924805288981     0.00000000000000
Ga     2.56924805288981     0.00000000000000     2.56924805288981
Ga    -0.00000000000000     2.56924805288981     2.56924805288981
O     2.56924805288981     0.00000000000000     0.00000000000000
O    -0.00000000000000     2.56924805288981     0.00000000000000
O     0.00000000000000     0.00000000000000     2.56924805288981
O     2.56924805288981     2.56924805288981     2.56924805288982
O     3.85387207933472     3.85387207933472     1.28462402644491
O     3.85387207933472     1.28462402644491     3.85387207933472
O     1.28462402644491     3.85387207933472     3.85387207933472
O     3.85387207933472     1.28462402644491     1.28462402644491
O     1.28462402644491     3.85387207933472     1.28462402644491
O     1.28462402644491     1.28462402644491     3.85387207933472