CRYSTAL
# Primitive lattice vectors in Angstrom
PRIMVEC
 3.85936280991686 0.00000000000000 0.00000000000000
 -0.00000000000000 3.85936280991686 0.00000000000000
 0.00000000000000 0.00000000000000 3.85936280991686
# Cartesian coordinates in Angstrom.
PRIMCOORD
 4 1
Ga     0.00000000000000     0.00000000000000     0.00000000000000
O     1.92968140495843     0.00000000000000     0.00000000000000
O    -0.00000000000000     1.92968140495843     0.00000000000000
O     0.00000000000000     0.00000000000000     1.92968140495843