CRYSTAL
# Primitive lattice vectors in Angstrom
PRIMVEC
 4.80577629937913 0.00000000000000 0.00000000000000
 -0.00000000000000 4.80577629937913 0.00000000000000
 0.00000000000000 0.00000000000000 4.80577629937913
# Cartesian coordinates in Angstrom.
PRIMCOORD
 10 1
Ga     1.20144407484478     1.20144407484478     1.20144407484478
Ga     3.60433222453435     3.60433222453435     1.20144407484478
Ga     3.60433222453435     1.20144407484478     3.60433222453435
Ga     1.20144407484478     3.60433222453435     3.60433222453435
O     2.40288814968957     0.00000000000000     0.00000000000000
O    -0.00000000000000     2.40288814968957     0.00000000000000
O     0.00000000000000     0.00000000000000     2.40288814968957
O     2.40288814968957     2.40288814968957     0.00000000000000
O     2.40288814968957     0.00000000000000     2.40288814968957
O    -0.00000000000000     2.40288814968957     2.40288814968957