CRYSTAL
# Primitive lattice vectors in Angstrom
PRIMVEC
 2.81761959744380 0.00000000000000 1.62675343305814
 0.93920653248127 2.65647723220883 1.62675343305814
 0.00000000000000 0.00000000000000 3.25350686611629
# Cartesian coordinates in Angstrom.
PRIMCOORD
 2 1
Ga     0.00000000000000     0.00000000000000     0.00000000000000
O     1.87841306496253     1.32823861610441     3.25350686611629