CRYSTAL
# Primitive lattice vectors in Angstrom
PRIMVEC
 2.99545916391920 0.00000000000000 1.72942915463528
 0.99848638797307 2.82414598343287 1.72942915463528
 0.00000000000000 0.00000000000000 3.45885830927056
# Cartesian coordinates in Angstrom.
PRIMCOORD
 3 1
Ga     0.00000000000000     0.00000000000000     0.00000000000000
O     0.99848638797307     0.70603649585822     1.72942915463528
O     2.99545916391920     2.11810948757465     5.18828746390584