CRYSTAL
# Primitive lattice vectors in Angstrom
PRIMVEC
 5.32501241557942 0.00000000000000 0.00000000000000
 -0.00000000000000 5.32501241557942 0.00000000000000
 0.00000000000000 0.00000000000000 5.32501241557942
# Cartesian coordinates in Angstrom.
PRIMCOORD
 10 1
Gd     1.33125310389486     1.33125310389486     1.33125310389486
Gd     3.99375931168457     3.99375931168457     1.33125310389486
Gd     3.99375931168457     1.33125310389486     3.99375931168457
Gd     1.33125310389486     3.99375931168457     3.99375931168457
O     2.66250620778971     0.00000000000000     0.00000000000000
O    -0.00000000000000     2.66250620778971     0.00000000000000
O     0.00000000000000     0.00000000000000     2.66250620778971
O     2.66250620778971     2.66250620778971     0.00000000000000
O     2.66250620778971     0.00000000000000     2.66250620778971
O    -0.00000000000000     2.66250620778971     2.66250620778971