CRYSTAL
# Primitive lattice vectors in Angstrom
PRIMVEC
 2.96442478350919 0.00000000000000 1.71151144675143
 0.98814159450306 2.79488648898241 1.71151144675143
 0.00000000000000 0.00000000000000 3.42302289350285
# Cartesian coordinates in Angstrom.
PRIMCOORD
 2 1
Gd     0.00000000000000     0.00000000000000     0.00000000000000
O     1.97628318900612     1.39744324449121     3.42302289350285