CRYSTAL
# Primitive lattice vectors in Angstrom
PRIMVEC
 5.38480930914217 0.00000000000000 0.00000000000000
 -0.00000000000000 5.38480930914217 0.00000000000000
 0.00000000000000 0.00000000000000 5.38480930914217
# Cartesian coordinates in Angstrom.
PRIMCOORD
 14 1
Gd     0.00000000000000     0.00000000000000     0.00000000000000
Gd     2.69240465457109     2.69240465457109     0.00000000000000
Gd     2.69240465457109     0.00000000000000     2.69240465457109
Gd    -0.00000000000000     2.69240465457109     2.69240465457109
O     2.69240465457109     0.00000000000000     0.00000000000000
O    -0.00000000000000     2.69240465457109     0.00000000000000
O     0.00000000000000     0.00000000000000     2.69240465457109
O     2.69240465457109     2.69240465457109     2.69240465457109
O     4.03860698185663     4.03860698185663     1.34620232728554
O     4.03860698185663     1.34620232728554     4.03860698185663
O     1.34620232728554     4.03860698185663     4.03860698185663
O     4.03860698185663     1.34620232728554     1.34620232728554
O     1.34620232728554     4.03860698185663     1.34620232728554
O     1.34620232728554     1.34620232728554     4.03860698185663