CRYSTAL
# Primitive lattice vectors in Angstrom
PRIMVEC
 3.24958734615748 0.00000000000000 1.87615012905923
 1.08319578205249 3.06374033136794 1.87615012905923
 0.00000000000000 0.00000000000000 3.75230025811845
# Cartesian coordinates in Angstrom.
PRIMCOORD
 3 1
Gd     0.00000000000000     0.00000000000000     0.00000000000000
O     1.08319578205249     0.76593508284198     1.87615012905923
O     3.24958734615748     2.29780524852595     5.62845038717768