CRYSTAL
# Primitive lattice vectors in Angstrom
PRIMVEC
 4.14288645946616 0.00000000000000 0.00000000000000
 -0.00000000000000 4.14288645946616 0.00000000000000
 0.00000000000000 0.00000000000000 4.14288645946616
# Cartesian coordinates in Angstrom.
PRIMCOORD
 4 1
Gd     0.00000000000000     0.00000000000000     0.00000000000000
O     2.07144322973308     0.00000000000000     0.00000000000000
O    -0.00000000000000     2.07144322973308     0.00000000000000
O     0.00000000000000     0.00000000000000     2.07144322973308