CRYSTAL
# Primitive lattice vectors in Angstrom
PRIMVEC
 3.59177101806799 0.00000000000000 2.07370996414905
 1.19725700602266 3.38635419112691 2.07370996414905
 0.00000000000000 0.00000000000000 4.14741992829810
# Cartesian coordinates in Angstrom.
PRIMCOORD
 3 1
Gd     1.19725700602266     0.84658854778173     2.07370996414905
Gd     3.59177101806799     2.53976564334519     6.22112989244715
O     0.00000000000000     0.00000000000000     0.00000000000000