CRYSTAL
# Primitive lattice vectors in Angstrom
PRIMVEC
 2.95856967362064 0.00000000000000 1.70813099748114
 0.98618989120688 2.78936623844003 1.70813099748114
 0.00000000000000 0.00000000000000 3.41626199496228
# Cartesian coordinates in Angstrom.
PRIMCOORD
 3 1
Ge     0.00000000000000     0.00000000000000     0.00000000000000
O     0.98618989120688     0.69734155961001     1.70813099748114
O     2.95856967362064     2.09202467883003     5.12439299244342