CRYSTAL
# Primitive lattice vectors in Angstrom
PRIMVEC
 2.92062092716649 0.00000000000000 1.68622127850043
 0.97354030905550 2.75358781716636 1.68622127850043
 0.00000000000000 0.00000000000000 3.37244255700086
# Cartesian coordinates in Angstrom.
PRIMCOORD
 2 1
Ge     0.00000000000000     0.00000000000000     0.00000000000000
O     1.94708061811099     1.37679390858318     3.37244255700086