CRYSTAL
# Primitive lattice vectors in Angstrom
PRIMVEC
 5.18655089458986 0.00000000000000 0.00000000000000
 -0.00000000000000 5.18655089458986 0.00000000000000
 0.00000000000000 0.00000000000000 5.18655089458986
# Cartesian coordinates in Angstrom.
PRIMCOORD
 14 1
Ge     0.00000000000000     0.00000000000000     0.00000000000000
Ge     2.59327544729493     2.59327544729493     0.00000000000000
Ge     2.59327544729493     0.00000000000000     2.59327544729493
Ge    -0.00000000000000     2.59327544729493     2.59327544729493
O     2.59327544729493     0.00000000000000     0.00000000000000
O    -0.00000000000000     2.59327544729493     0.00000000000000
O     0.00000000000000     0.00000000000000     2.59327544729493
O     2.59327544729493     2.59327544729493     2.59327544729493
O     3.88991317094239     3.88991317094239     1.29663772364746
O     3.88991317094239     1.29663772364746     3.88991317094239
O     1.29663772364746     3.88991317094239     3.88991317094239
O     3.88991317094239     1.29663772364746     1.29663772364746
O     1.29663772364746     3.88991317094239     1.29663772364746
O     1.29663772364746     1.29663772364746     3.88991317094239