CRYSTAL
# Primitive lattice vectors in Angstrom
PRIMVEC
 4.94884838455562 0.00000000000000 0.00000000000000
 -0.00000000000000 4.94884838455562 0.00000000000000
 0.00000000000000 0.00000000000000 4.94884838455562
# Cartesian coordinates in Angstrom.
PRIMCOORD
 10 1
Ge     1.23721209613891     1.23721209613891     1.23721209613891
Ge     3.71163628841672     3.71163628841672     1.23721209613891
Ge     3.71163628841672     1.23721209613891     3.71163628841672
Ge     1.23721209613891     3.71163628841672     3.71163628841672
O     2.47442419227781     0.00000000000000     0.00000000000000
O    -0.00000000000000     2.47442419227781     0.00000000000000
O     0.00000000000000     0.00000000000000     2.47442419227781
O     2.47442419227781     2.47442419227781     0.00000000000000
O     2.47442419227781     0.00000000000000     2.47442419227781
O    -0.00000000000000     2.47442419227781     2.47442419227781