CRYSTAL
# Primitive lattice vectors in Angstrom
PRIMVEC
 3.57329842210395 0.00000000000000 2.06304480589658
 1.19109947403465 3.36893806063052 2.06304480589658
 0.00000000000000 0.00000000000000 4.12608961179316
# Cartesian coordinates in Angstrom.
PRIMCOORD
 3 1
Ge     1.19109947403465     0.84223451515763     2.06304480589658
Ge     3.57329842210395     2.52670354547289     6.18913441768974
O     0.00000000000000     0.00000000000000     0.00000000000000