CRYSTAL
# Primitive lattice vectors in Angstrom
PRIMVEC
 3.71068089166984 0.00000000000000 0.00000000000000
 -0.00000000000000 3.71068089166984 0.00000000000000
 0.00000000000000 0.00000000000000 3.71068089166984
# Cartesian coordinates in Angstrom.
PRIMCOORD
 4 1
Ge     0.00000000000000     0.00000000000000     0.00000000000000
O     1.85534044583492     0.00000000000000     0.00000000000000
O    -0.00000000000000     1.85534044583492     0.00000000000000
O     0.00000000000000     0.00000000000000     1.85534044583492