CRYSTAL
# Primitive lattice vectors in Angstrom
PRIMVEC
 3.95447955387334 0.00000000000000 0.00000000000000
 -0.00000000000000 3.95447955387334 0.00000000000000
 0.00000000000000 0.00000000000000 3.95447955387334
# Cartesian coordinates in Angstrom.
PRIMCOORD
 10 1
H     0.98861988846834     0.98861988846834     0.98861988846834
H     2.96585966540501     2.96585966540501     0.98861988846834
H     2.96585966540501     0.98861988846834     2.96585966540501
H     0.98861988846833     2.96585966540501     2.96585966540501
O     1.97723977693667     0.00000000000000     0.00000000000000
O    -0.00000000000000     1.97723977693667     0.00000000000000
O     0.00000000000000     0.00000000000000     1.97723977693667
O     1.97723977693667     1.97723977693667     0.00000000000000
O     1.97723977693667     0.00000000000000     1.97723977693667
O    -0.00000000000000     1.97723977693667     1.97723977693667