CRYSTAL
# Primitive lattice vectors in Angstrom
PRIMVEC
 2.22332064059143 0.00000000000000 1.28363477034032
 0.74110688019714 2.09616680228563 1.28363477034032
 0.00000000000000 0.00000000000000 2.56726954068063
# Cartesian coordinates in Angstrom.
PRIMCOORD
 3 1
H     0.74110688019714     0.52404170057141     1.28363477034032
H     2.22332064059143     1.57212510171422     3.85090431102095
O     0.00000000000000     0.00000000000000     0.00000000000000