CRYSTAL
# Primitive lattice vectors in Angstrom
PRIMVEC
 4.69276117691905 0.00000000000000 0.00000000000000
 -0.00000000000000 4.69276117691905 0.00000000000000
 0.00000000000000 0.00000000000000 4.69276117691905
# Cartesian coordinates in Angstrom.
PRIMCOORD
 14 1
H     0.00000000000000     0.00000000000000     0.00000000000000
H     2.34638058845953     2.34638058845953     0.00000000000000
H     2.34638058845953     0.00000000000000     2.34638058845953
H    -0.00000000000000     2.34638058845953     2.34638058845953
O     2.34638058845953     0.00000000000000     0.00000000000000
O    -0.00000000000000     2.34638058845953     0.00000000000000
O     0.00000000000000     0.00000000000000     2.34638058845953
O     2.34638058845953     2.34638058845953     2.34638058845953
O     3.51957088268929     3.51957088268929     1.17319029422976
O     3.51957088268929     1.17319029422976     3.51957088268929
O     1.17319029422976     3.51957088268929     3.51957088268929
O     3.51957088268929     1.17319029422976     1.17319029422976
O     1.17319029422976     3.51957088268929     1.17319029422976
O     1.17319029422976     1.17319029422976     3.51957088268929