CRYSTAL
# Primitive lattice vectors in Angstrom
PRIMVEC
 2.59866069710999 0.00000000000000 1.50033745300896
 0.86622023237000 2.45004080123925 1.50033745300896
 0.00000000000000 0.00000000000000 3.00067490601791
# Cartesian coordinates in Angstrom.
PRIMCOORD
 3 1
H     0.00000000000000     0.00000000000000     0.00000000000000
O     0.86622023237000     0.61251020030981     1.50033745300896
O     2.59866069710999     1.83753060092944     4.50101235902687