CRYSTAL
# Primitive lattice vectors in Angstrom
PRIMVEC
 2.09605237461188 0.00000000000000 1.21015640271772
 0.69868412487063 1.97617713041363 1.21015640271772
 0.00000000000000 0.00000000000000 2.42031280543545
# Cartesian coordinates in Angstrom.
PRIMCOORD
 2 1
H     0.00000000000000     0.00000000000000     0.00000000000000
O     1.39736824974125     0.98808856520682     2.42031280543545