CRYSTAL
# Primitive lattice vectors in Angstrom
PRIMVEC
 3.14394186493753 0.00000000000000 0.00000000000000
 -0.00000000000000 3.14394186493753 0.00000000000000
 0.00000000000000 0.00000000000000 3.14394186493753
# Cartesian coordinates in Angstrom.
PRIMCOORD
 4 1
H     0.00000000000000     0.00000000000000     0.00000000000000
O     1.57197093246877     0.00000000000000     0.00000000000000
O    -0.00000000000000     1.57197093246877     0.00000000000000
O     0.00000000000000     0.00000000000000     1.57197093246877