CRYSTAL
# Primitive lattice vectors in Angstrom
PRIMVEC
 3.50466399915520 0.00000000000000 0.00000000000000
 -0.00000000000000 3.50466399915520 0.00000000000000
 0.00000000000000 0.00000000000000 3.50466399915520
# Cartesian coordinates in Angstrom.
PRIMCOORD
 4 1
He     0.00000000000000     0.00000000000000     0.00000000000000
O     1.75233199957760     0.00000000000000     0.00000000000000
O    -0.00000000000000     1.75233199957760     0.00000000000000
O     0.00000000000000     0.00000000000000     1.75233199957760