CRYSTAL
# Primitive lattice vectors in Angstrom
PRIMVEC
 4.55097794622456 0.00000000000000 0.00000000000000
 -0.00000000000000 4.55097794622456 0.00000000000000
 0.00000000000000 0.00000000000000 4.55097794622456
# Cartesian coordinates in Angstrom.
PRIMCOORD
 10 1
He     1.13774448655614     1.13774448655614     1.13774448655614
He     3.41323345966842     3.41323345966842     1.13774448655614
He     3.41323345966842     1.13774448655614     3.41323345966842
He     1.13774448655614     3.41323345966842     3.41323345966842
O     2.27548897311228     0.00000000000000     0.00000000000000
O    -0.00000000000000     2.27548897311228     0.00000000000000
O     0.00000000000000     0.00000000000000     2.27548897311228
O     2.27548897311228     2.27548897311228     0.00000000000000
O     2.27548897311228     0.00000000000000     2.27548897311228
O    -0.00000000000000     2.27548897311228     2.27548897311228