CRYSTAL
# Primitive lattice vectors in Angstrom
PRIMVEC
 2.83382765314193 0.00000000000000 1.63611115837850
 0.94460921771398 2.67175833366749 1.63611115837850
 0.00000000000000 0.00000000000000 3.27222231675700
# Cartesian coordinates in Angstrom.
PRIMCOORD
 3 1
He     0.00000000000000     0.00000000000000     0.00000000000000
O     0.94460921771398     0.66793958341687     1.63611115837850
O     2.83382765314193     2.00381875025062     4.90833347513549