CRYSTAL
# Primitive lattice vectors in Angstrom
PRIMVEC
 3.07061513027576 0.00000000000000 1.77282047204245
 1.02353837675859 2.89500370804267 1.77282047204245
 0.00000000000000 0.00000000000000 3.54564094408489
# Cartesian coordinates in Angstrom.
PRIMCOORD
 2 1
He     0.00000000000000     0.00000000000000     0.00000000000000
O     2.04707675351717     1.44750185402134     3.54564094408489