CRYSTAL
# Primitive lattice vectors in Angstrom
PRIMVEC
 4.39034208519752 0.00000000000000 2.53476518472333
 1.46344736173251 4.13925421356247 2.53476518472333
 0.00000000000000 0.00000000000000 5.06953036944666
# Cartesian coordinates in Angstrom.
PRIMCOORD
 3 1
He     1.46344736173251     1.03481355339062     2.53476518472333
He     4.39034208519752     3.10444066017185     7.60429555416999
O     0.00000000000000     0.00000000000000     0.00000000000000