CRYSTAL
# Primitive lattice vectors in Angstrom
PRIMVEC
 4.83163765877558 0.00000000000000 0.00000000000000
 -0.00000000000000 4.83163765877558 0.00000000000000
 0.00000000000000 0.00000000000000 4.83163765877558
# Cartesian coordinates in Angstrom.
PRIMCOORD
 14 1
He     0.00000000000000     0.00000000000000     0.00000000000000
He     2.41581882938779     2.41581882938779     0.00000000000000
He     2.41581882938779     0.00000000000000     2.41581882938779
He    -0.00000000000000     2.41581882938779     2.41581882938779
O     2.41581882938779     0.00000000000000     0.00000000000000
O    -0.00000000000000     2.41581882938779     0.00000000000000
O     0.00000000000000     0.00000000000000     2.41581882938779
O     2.41581882938779     2.41581882938779     2.41581882938779
O     3.62372824408168     3.62372824408168     1.20790941469390
O     3.62372824408168     1.20790941469389     3.62372824408168
O     1.20790941469389     3.62372824408168     3.62372824408168
O     3.62372824408168     1.20790941469389     1.20790941469390
O     1.20790941469389     3.62372824408168     1.20790941469390
O     1.20790941469389     1.20790941469389     3.62372824408168