CRYSTAL
# Primitive lattice vectors in Angstrom
PRIMVEC
 5.04456001555685 0.00000000000000 0.00000000000000
 -0.00000000000000 5.04456001555685 0.00000000000000
 0.00000000000000 0.00000000000000 5.04456001555685
# Cartesian coordinates in Angstrom.
PRIMCOORD
 10 1
Hf     1.26114000388921     1.26114000388921     1.26114000388921
Hf     3.78342001166763     3.78342001166763     1.26114000388921
Hf     3.78342001166763     1.26114000388921     3.78342001166763
Hf     1.26114000388921     3.78342001166763     3.78342001166763
O     2.52228000777842     0.00000000000000     0.00000000000000
O    -0.00000000000000     2.52228000777842     0.00000000000000
O     0.00000000000000     0.00000000000000     2.52228000777842
O     2.52228000777842     2.52228000777842     0.00000000000000
O     2.52228000777842     0.00000000000000     2.52228000777842
O    -0.00000000000000     2.52228000777842     2.52228000777842