CRYSTAL
# Primitive lattice vectors in Angstrom
PRIMVEC
 3.54852285967608 0.00000000000000 2.04874062825952
 1.18284095322536 3.34557943636325 2.04874062825952
 0.00000000000000 0.00000000000000 4.09748125651905
# Cartesian coordinates in Angstrom.
PRIMCOORD
 3 1
Hf     1.18284095322536     0.83639485909081     2.04874062825952
Hf     3.54852285967608     2.50918457727243     6.14622188477857
O     0.00000000000000     0.00000000000000     0.00000000000000