CRYSTAL
# Primitive lattice vectors in Angstrom
PRIMVEC
 4.13734973306565 0.00000000000000 0.00000000000000
 -0.00000000000000 4.13734973306565 0.00000000000000
 0.00000000000000 0.00000000000000 4.13734973306565
# Cartesian coordinates in Angstrom.
PRIMCOORD
 4 1
Hf     0.00000000000000     0.00000000000000     0.00000000000000
O     2.06867486653282     0.00000000000000     0.00000000000000
O    -0.00000000000000     2.06867486653282     0.00000000000000
O     0.00000000000000     0.00000000000000     2.06867486653282