CRYSTAL
# Primitive lattice vectors in Angstrom
PRIMVEC
 5.22526260514293 0.00000000000000 0.00000000000000
 -0.00000000000000 5.22526260514293 0.00000000000000
 0.00000000000000 0.00000000000000 5.22526260514293
# Cartesian coordinates in Angstrom.
PRIMCOORD
 14 1
Hf     0.00000000000000     0.00000000000000     0.00000000000000
Hf     2.61263130257146     2.61263130257146     0.00000000000000
Hf     2.61263130257146     0.00000000000000     2.61263130257146
Hf    -0.00000000000000     2.61263130257146     2.61263130257146
O     2.61263130257146     0.00000000000000     0.00000000000000
O    -0.00000000000000     2.61263130257146     0.00000000000000
O     0.00000000000000     0.00000000000000     2.61263130257146
O     2.61263130257146     2.61263130257146     2.61263130257146
O     3.91894695385720     3.91894695385720     1.30631565128573
O     3.91894695385720     1.30631565128573     3.91894695385720
O     1.30631565128573     3.91894695385720     3.91894695385720
O     3.91894695385720     1.30631565128573     1.30631565128573
O     1.30631565128573     3.91894695385720     1.30631565128573
O     1.30631565128573     1.30631565128573     3.91894695385720