CRYSTAL
# Primitive lattice vectors in Angstrom
PRIMVEC
 2.81300346338198 0.00000000000000 1.62408830681494
 0.93766782112733 2.65212509927819 1.62408830681494
 0.00000000000000 0.00000000000000 3.24817661362988
# Cartesian coordinates in Angstrom.
PRIMCOORD
 2 1
Hf     0.00000000000000     0.00000000000000     0.00000000000000
O     1.87533564225466     1.32606254963910     3.24817661362988