CRYSTAL
# Primitive lattice vectors in Angstrom
PRIMVEC
 3.12181552840207 0.00000000000000 1.80238103568329
 1.04060517613402 2.94327590632876 1.80238103568329
 0.00000000000000 0.00000000000000 3.60476207136658
# Cartesian coordinates in Angstrom.
PRIMCOORD
 3 1
Hf     0.00000000000000     0.00000000000000     0.00000000000000
O     1.04060517613402     0.73581897658219     1.80238103568329
O     3.12181552840207     2.20745692974657     5.40714310704987