CRYSTAL
# Primitive lattice vectors in Angstrom
PRIMVEC
 3.30508397449207 0.00000000000000 1.90819112236731
 1.10169465816402 3.11606305433910 1.90819112236731
 0.00000000000000 0.00000000000000 3.81638224473462
# Cartesian coordinates in Angstrom.
PRIMCOORD
 3 1
Hg     0.00000000000000     0.00000000000000     0.00000000000000
O     1.10169465816402     0.77901576358478     1.90819112236731
O     3.30508397449207     2.33704729075433     5.72457336710194