CRYSTAL
# Primitive lattice vectors in Angstrom
PRIMVEC
 3.72135532325904 0.00000000000000 2.14852549763385
 1.24045177441968 3.50852744570816 2.14852549763385
 0.00000000000000 0.00000000000000 4.29705099526771
# Cartesian coordinates in Angstrom.
PRIMCOORD
 3 1
Hg     1.24045177441968     0.87713186142704     2.14852549763385
Hg     3.72135532325904     2.63139558428112     6.44557649290156
O     0.00000000000000     0.00000000000000     0.00000000000000