CRYSTAL
# Primitive lattice vectors in Angstrom
PRIMVEC
 5.50171171604942 0.00000000000000 0.00000000000000
 -0.00000000000000 5.50171171604942 0.00000000000000
 0.00000000000000 0.00000000000000 5.50171171604942
# Cartesian coordinates in Angstrom.
PRIMCOORD
 14 1
Hg     0.00000000000000     0.00000000000000     0.00000000000000
Hg     2.75085585802471     2.75085585802471     0.00000000000000
Hg     2.75085585802471     0.00000000000000     2.75085585802471
Hg    -0.00000000000000     2.75085585802471     2.75085585802471
O     2.75085585802471     0.00000000000000     0.00000000000000
O    -0.00000000000000     2.75085585802471     0.00000000000000
O     0.00000000000000     0.00000000000000     2.75085585802471
O     2.75085585802471     2.75085585802471     2.75085585802471
O     4.12628378703707     4.12628378703707     1.37542792901236
O     4.12628378703707     1.37542792901236     4.12628378703707
O     1.37542792901236     4.12628378703707     4.12628378703707
O     4.12628378703707     1.37542792901236     1.37542792901236
O     1.37542792901236     4.12628378703707     1.37542792901236
O     1.37542792901236     1.37542792901236     4.12628378703707