CRYSTAL
# Primitive lattice vectors in Angstrom
PRIMVEC
 3.01390367632747 0.00000000000000 1.74007809883927
 1.00463455877583 2.84153563649896 1.74007809883927
 0.00000000000000 0.00000000000000 3.48015619767854
# Cartesian coordinates in Angstrom.
PRIMCOORD
 2 1
Hg     0.00000000000000     0.00000000000000     0.00000000000000
O     2.00926911755165     1.42076781824948     3.48015619767854