CRYSTAL
# Primitive lattice vectors in Angstrom
PRIMVEC
 4.17088809025864 0.00000000000000 0.00000000000000
 -0.00000000000000 4.17088809025864 0.00000000000000
 0.00000000000000 0.00000000000000 4.17088809025864
# Cartesian coordinates in Angstrom.
PRIMCOORD
 4 1
Hg     0.00000000000000     0.00000000000000     0.00000000000000
O     2.08544404512932     0.00000000000000     0.00000000000000
O    -0.00000000000000     2.08544404512932     0.00000000000000
O     0.00000000000000     0.00000000000000     2.08544404512932