CRYSTAL
# Primitive lattice vectors in Angstrom
PRIMVEC
 5.34444918956269 0.00000000000000 0.00000000000000
 -0.00000000000000 5.34444918956269 0.00000000000000
 0.00000000000000 0.00000000000000 5.34444918956269
# Cartesian coordinates in Angstrom.
PRIMCOORD
 10 1
Hg     1.33611229739067     1.33611229739067     1.33611229739067
Hg     4.00833689217202     4.00833689217202     1.33611229739067
Hg     4.00833689217202     1.33611229739067     4.00833689217202
Hg     1.33611229739067     4.00833689217202     4.00833689217202
O     2.67222459478134     0.00000000000000     0.00000000000000
O    -0.00000000000000     2.67222459478134     0.00000000000000
O     0.00000000000000     0.00000000000000     2.67222459478134
O     2.67222459478134     2.67222459478134     0.00000000000000
O     2.67222459478134     0.00000000000000     2.67222459478134
O    -0.00000000000000     2.67222459478134     2.67222459478134