CRYSTAL
# Primitive lattice vectors in Angstrom
PRIMVEC
 3.23564771888066 0.00000000000000 1.86810208149855
 1.07854923962689 3.05059792473507 1.86810208149855
 0.00000000000000 0.00000000000000 3.73620416299710
# Cartesian coordinates in Angstrom.
PRIMCOORD
 3 1
Ho     0.00000000000000     0.00000000000000     0.00000000000000
O     1.07854923962689     0.76264948118377     1.86810208149855
O     3.23564771888066     2.28794844355130     5.60430624449565