CRYSTAL
# Primitive lattice vectors in Angstrom
PRIMVEC
 2.95515817160193 0.00000000000000 1.70616136587230
 0.98505272386731 2.78614984349142 1.70616136587230
 0.00000000000000 0.00000000000000 3.41232273174459
# Cartesian coordinates in Angstrom.
PRIMCOORD
 2 1
Ho     0.00000000000000     0.00000000000000     0.00000000000000
O     1.97010544773462     1.39307492174571     3.41232273174459