CRYSTAL
# Primitive lattice vectors in Angstrom
PRIMVEC
 3.64482002889325 0.00000000000000 2.10433782482926
 1.21494000963108 3.43636927817995 2.10433782482926
 0.00000000000000 0.00000000000000 4.20867564965851
# Cartesian coordinates in Angstrom.
PRIMCOORD
 3 1
Ho     1.21494000963108     0.85909231954499     2.10433782482926
Ho     3.64482002889325     2.57727695863496     6.31301347448777
O     0.00000000000000     0.00000000000000     0.00000000000000