CRYSTAL
# Primitive lattice vectors in Angstrom
PRIMVEC
 4.16728223362957 0.00000000000000 0.00000000000000
 -0.00000000000000 4.16728223362957 0.00000000000000
 0.00000000000000 0.00000000000000 4.16728223362957
# Cartesian coordinates in Angstrom.
PRIMCOORD
 4 1
Ho     0.00000000000000     0.00000000000000     0.00000000000000
O     2.08364111681478     0.00000000000000     0.00000000000000
O    -0.00000000000000     2.08364111681478     0.00000000000000
O     0.00000000000000     0.00000000000000     2.08364111681478