CRYSTAL
# Primitive lattice vectors in Angstrom
PRIMVEC
 5.37729059575182 0.00000000000000 0.00000000000000
 -0.00000000000000 5.37729059575182 0.00000000000000
 0.00000000000000 0.00000000000000 5.37729059575182
# Cartesian coordinates in Angstrom.
PRIMCOORD
 14 1
Ho     0.00000000000000     0.00000000000000     0.00000000000000
Ho     2.68864529787591     2.68864529787591     0.00000000000000
Ho     2.68864529787591     0.00000000000000     2.68864529787591
Ho    -0.00000000000000     2.68864529787591     2.68864529787591
O     2.68864529787591     0.00000000000000     0.00000000000000
O    -0.00000000000000     2.68864529787591     0.00000000000000
O     0.00000000000000     0.00000000000000     2.68864529787591
O     2.68864529787591     2.68864529787591     2.68864529787591
O     4.03296794681387     4.03296794681387     1.34432264893796
O     4.03296794681387     1.34432264893796     4.03296794681387
O     1.34432264893796     4.03296794681387     4.03296794681387
O     4.03296794681387     1.34432264893796     1.34432264893796
O     1.34432264893796     4.03296794681387     1.34432264893796
O     1.34432264893796     1.34432264893796     4.03296794681387