CRYSTAL
# Primitive lattice vectors in Angstrom
PRIMVEC
 5.28671411755274 0.00000000000000 0.00000000000000
 -0.00000000000000 5.28671411755274 0.00000000000000
 0.00000000000000 0.00000000000000 5.28671411755274
# Cartesian coordinates in Angstrom.
PRIMCOORD
 10 1
Ho     1.32167852938818     1.32167852938818     1.32167852938818
Ho     3.96503558816455     3.96503558816455     1.32167852938818
Ho     3.96503558816455     1.32167852938818     3.96503558816455
Ho     1.32167852938818     3.96503558816455     3.96503558816455
O     2.64335705877637     0.00000000000000     0.00000000000000
O    -0.00000000000000     2.64335705877637     0.00000000000000
O     0.00000000000000     0.00000000000000     2.64335705877637
O     2.64335705877637     2.64335705877637     0.00000000000000
O     2.64335705877637     0.00000000000000     2.64335705877637
O    -0.00000000000000     2.64335705877637     2.64335705877637