CRYSTAL
# Primitive lattice vectors in Angstrom
PRIMVEC
 4.04785267429186 0.00000000000000 2.33702883114235
 1.34928422476395 3.81635210031450 2.33702883114235
 0.00000000000000 0.00000000000000 4.67405766228470
# Cartesian coordinates in Angstrom.
PRIMCOORD
 3 1
I     1.34928422476395     0.95408802507862     2.33702883114235
I     4.04785267429186     2.86226407523587     7.01108649342705
O     0.00000000000000     0.00000000000000     0.00000000000000