CRYSTAL
# Primitive lattice vectors in Angstrom
PRIMVEC
 5.46251548450319 0.00000000000000 0.00000000000000
 -0.00000000000000 5.46251548450319 0.00000000000000
 0.00000000000000 0.00000000000000 5.46251548450319
# Cartesian coordinates in Angstrom.
PRIMCOORD
 14 1
I     0.00000000000000     0.00000000000000     0.00000000000000
I     2.73125774225160     2.73125774225160     0.00000000000000
I     2.73125774225160     0.00000000000000     2.73125774225160
I    -0.00000000000000     2.73125774225160     2.73125774225160
O     2.73125774225160     0.00000000000000     0.00000000000000
O    -0.00000000000000     2.73125774225160     0.00000000000000
O     0.00000000000000     0.00000000000000     2.73125774225160
O     2.73125774225160     2.73125774225160     2.73125774225160
O     4.09688661337740     4.09688661337740     1.36562887112580
O     4.09688661337740     1.36562887112580     4.09688661337740
O     1.36562887112580     4.09688661337740     4.09688661337740
O     4.09688661337740     1.36562887112580     1.36562887112580
O     1.36562887112580     4.09688661337740     1.36562887112580
O     1.36562887112580     1.36562887112580     4.09688661337740