CRYSTAL
# Primitive lattice vectors in Angstrom
PRIMVEC
 5.51484096752777 0.00000000000000 0.00000000000000
 -0.00000000000000 5.51484096752777 0.00000000000000
 0.00000000000000 0.00000000000000 5.51484096752777
# Cartesian coordinates in Angstrom.
PRIMCOORD
 10 1
I     1.37871024188194     1.37871024188194     1.37871024188194
I     4.13613072564583     4.13613072564583     1.37871024188194
I     4.13613072564583     1.37871024188194     4.13613072564583
I     1.37871024188194     4.13613072564583     4.13613072564583
O     2.75742048376388     0.00000000000000     0.00000000000000
O    -0.00000000000000     2.75742048376388     0.00000000000000
O     0.00000000000000     0.00000000000000     2.75742048376388
O     2.75742048376388     2.75742048376388     0.00000000000000
O     2.75742048376388     0.00000000000000     2.75742048376388
O    -0.00000000000000     2.75742048376388     2.75742048376388