CRYSTAL
# Primitive lattice vectors in Angstrom
PRIMVEC
 3.36411191789558 0.00000000000000 1.94227092138104
 1.12137063929853 3.17171513308593 1.94227092138104
 0.00000000000000 0.00000000000000 3.88454184276208
# Cartesian coordinates in Angstrom.
PRIMCOORD
 3 1
I     0.00000000000000     0.00000000000000     0.00000000000000
O     1.12137063929853     0.79292878327148     1.94227092138104
O     3.36411191789558     2.37878634981445     5.82681276414312