CRYSTAL
# Primitive lattice vectors in Angstrom
PRIMVEC
 3.93319360274783 0.00000000000000 0.00000000000000
 -0.00000000000000 3.93319360274783 0.00000000000000
 0.00000000000000 0.00000000000000 3.93319360274783
# Cartesian coordinates in Angstrom.
PRIMCOORD
 4 1
I     0.00000000000000     0.00000000000000     0.00000000000000
O     1.96659680137392     0.00000000000000     0.00000000000000
O    -0.00000000000000     1.96659680137392     0.00000000000000
O     0.00000000000000     0.00000000000000     1.96659680137392