CRYSTAL
# Primitive lattice vectors in Angstrom
PRIMVEC
 3.26838278917602 0.00000000000000 1.88700168314552
 1.08946092972534 3.08146084498636 1.88700168314552
 0.00000000000000 0.00000000000000 3.77400336629103
# Cartesian coordinates in Angstrom.
PRIMCOORD
 2 1
I     0.00000000000000     0.00000000000000     0.00000000000000
O     2.17892185945068     1.54073042249318     3.77400336629103