CRYSTAL
# Primitive lattice vectors in Angstrom
PRIMVEC
 3.92636610021990 0.00000000000000 2.26688852489898
 1.30878870007330 3.70181345984863 2.26688852489898
 0.00000000000000 0.00000000000000 4.53377704979796
# Cartesian coordinates in Angstrom.
PRIMCOORD
 3 1
In     1.30878870007330     0.92545336496216     2.26688852489898
In     3.92636610021990     2.77636009488647     6.80066557469694
O     0.00000000000000     0.00000000000000     0.00000000000000