CRYSTAL
# Primitive lattice vectors in Angstrom
PRIMVEC
 5.39286177161717 0.00000000000000 0.00000000000000
 -0.00000000000000 5.39286177161717 0.00000000000000
 0.00000000000000 0.00000000000000 5.39286177161717
# Cartesian coordinates in Angstrom.
PRIMCOORD
 14 1
In     0.00000000000000     0.00000000000000     0.00000000000000
In     2.69643088580859     2.69643088580859     0.00000000000000
In     2.69643088580859     0.00000000000000     2.69643088580859
In    -0.00000000000000     2.69643088580859     2.69643088580859
O     2.69643088580859     0.00000000000000     0.00000000000000
O    -0.00000000000000     2.69643088580859     0.00000000000000
O     0.00000000000000     0.00000000000000     2.69643088580859
O     2.69643088580859     2.69643088580859     2.69643088580859
O     4.04464632871288     4.04464632871288     1.34821544290429
O     4.04464632871288     1.34821544290429     4.04464632871288
O     1.34821544290429     4.04464632871288     4.04464632871288
O     4.04464632871288     1.34821544290429     1.34821544290429
O     1.34821544290429     4.04464632871288     1.34821544290429
O     1.34821544290429     1.34821544290429     4.04464632871288