CRYSTAL
# Primitive lattice vectors in Angstrom
PRIMVEC
 3.22367041894104 0.00000000000000 1.86118698415425
 1.07455680631368 3.03930561805825 1.86118698415425
 0.00000000000000 0.00000000000000 3.72237396830849
# Cartesian coordinates in Angstrom.
PRIMCOORD
 3 1
In     0.00000000000000     0.00000000000000     0.00000000000000
O     1.07455680631368     0.75982640451456     1.86118698415425
O     3.22367041894104     2.27947921354369     5.58356095246274