CRYSTAL
# Primitive lattice vectors in Angstrom
PRIMVEC
 5.19714496539820 0.00000000000000 0.00000000000000
 -0.00000000000000 5.19714496539820 0.00000000000000
 0.00000000000000 0.00000000000000 5.19714496539820
# Cartesian coordinates in Angstrom.
PRIMCOORD
 10 1
In     1.29928624134955     1.29928624134955     1.29928624134955
In     3.89785872404865     3.89785872404865     1.29928624134955
In     3.89785872404865     1.29928624134955     3.89785872404865
In     1.29928624134955     3.89785872404865     3.89785872404865
O     2.59857248269910     0.00000000000000     0.00000000000000
O    -0.00000000000000     2.59857248269910     0.00000000000000
O     0.00000000000000     0.00000000000000     2.59857248269910
O     2.59857248269910     2.59857248269910     0.00000000000000
O     2.59857248269910     0.00000000000000     2.59857248269910
O    -0.00000000000000     2.59857248269910     2.59857248269910