CRYSTAL
# Primitive lattice vectors in Angstrom
PRIMVEC
 4.21253606460709 0.00000000000000 0.00000000000000
 -0.00000000000000 4.21253606460709 0.00000000000000
 0.00000000000000 0.00000000000000 4.21253606460709
# Cartesian coordinates in Angstrom.
PRIMCOORD
 4 1
In     0.00000000000000     0.00000000000000     0.00000000000000
O     2.10626803230355     0.00000000000000     0.00000000000000
O    -0.00000000000000     2.10626803230355     0.00000000000000
O     0.00000000000000     0.00000000000000     2.10626803230355