CRYSTAL
# Primitive lattice vectors in Angstrom
PRIMVEC
 3.03739358070058 0.00000000000000 1.75364000145232
 1.01246452690019 2.86368213072783 1.75364000145232
 0.00000000000000 0.00000000000000 3.50728000290464
# Cartesian coordinates in Angstrom.
PRIMCOORD
 2 1
In     0.00000000000000     0.00000000000000     0.00000000000000
O     2.02492905380039     1.43184106536391     3.50728000290464