CRYSTAL
# Primitive lattice vectors in Angstrom
PRIMVEC
 4.80704295992925 0.00000000000000 0.00000000000000
 -0.00000000000000 4.80704295992925 0.00000000000000
 0.00000000000000 0.00000000000000 4.80704295992925
# Cartesian coordinates in Angstrom.
PRIMCOORD
 10 1
Ir     1.20176073998231     1.20176073998231     1.20176073998231
Ir     3.60528221994694     3.60528221994694     1.20176073998231
Ir     3.60528221994694     1.20176073998231     3.60528221994694
Ir     1.20176073998231     3.60528221994694     3.60528221994694
O     2.40352147996463     0.00000000000000     0.00000000000000
O    -0.00000000000000     2.40352147996463     0.00000000000000
O     0.00000000000000     0.00000000000000     2.40352147996463
O     2.40352147996463     2.40352147996463     0.00000000000000
O     2.40352147996463     0.00000000000000     2.40352147996463
O    -0.00000000000000     2.40352147996463     2.40352147996463