CRYSTAL
# Primitive lattice vectors in Angstrom
PRIMVEC
 3.33452360440088 0.00000000000000 1.92518810062001
 1.11150786813363 3.14381900359796 1.92518810062001
 0.00000000000000 0.00000000000000 3.85037620124001
# Cartesian coordinates in Angstrom.
PRIMCOORD
 3 1
Ir     1.11150786813363     0.78595475089949     1.92518810062001
Ir     3.33452360440088     2.35786425269847     5.77556430186002
O     0.00000000000000     0.00000000000000     0.00000000000000