CRYSTAL
# Primitive lattice vectors in Angstrom
PRIMVEC
 3.03481632252473 0.00000000000000 1.75215202075072
 1.01160544084158 2.86125226841714 1.75215202075072
 0.00000000000000 0.00000000000000 3.50430404150144
# Cartesian coordinates in Angstrom.
PRIMCOORD
 3 1
Ir     0.00000000000000     0.00000000000000     0.00000000000000
O     1.01160544084158     0.71531306710428     1.75215202075072
O     3.03481632252473     2.14593920131286     5.25645606225216