CRYSTAL
# Primitive lattice vectors in Angstrom
PRIMVEC
 3.77700734888693 0.00000000000000 0.00000000000000
 -0.00000000000000 3.77700734888693 0.00000000000000
 0.00000000000000 0.00000000000000 3.77700734888693
# Cartesian coordinates in Angstrom.
PRIMCOORD
 4 1
Ir     0.00000000000000     0.00000000000000     0.00000000000000
O     1.88850367444346     0.00000000000000     0.00000000000000
O    -0.00000000000000     1.88850367444346     0.00000000000000
O     0.00000000000000     0.00000000000000     1.88850367444346