CRYSTAL
# Primitive lattice vectors in Angstrom
PRIMVEC
 2.78143304963426 0.00000000000000 1.60586111993926
 0.92714434987809 2.62236022775036 1.60586111993926
 0.00000000000000 0.00000000000000 3.21172223987853
# Cartesian coordinates in Angstrom.
PRIMCOORD
 2 1
Ir     0.00000000000000     0.00000000000000     0.00000000000000
O     1.85428869975618     1.31118011387518     3.21172223987853