CRYSTAL
# Primitive lattice vectors in Angstrom
PRIMVEC
 5.07844499005393 0.00000000000000 0.00000000000000
 -0.00000000000000 5.07844499005393 0.00000000000000
 0.00000000000000 0.00000000000000 5.07844499005393
# Cartesian coordinates in Angstrom.
PRIMCOORD
 14 1
Ir     0.00000000000000     0.00000000000000     0.00000000000000
Ir     2.53922249502697     2.53922249502697     0.00000000000000
Ir     2.53922249502697     0.00000000000000     2.53922249502697
Ir    -0.00000000000000     2.53922249502697     2.53922249502697
O     2.53922249502697     0.00000000000000     0.00000000000000
O    -0.00000000000000     2.53922249502697     0.00000000000000
O     0.00000000000000     0.00000000000000     2.53922249502697
O     2.53922249502697     2.53922249502697     2.53922249502697
O     3.80883374254045     3.80883374254045     1.26961124751348
O     3.80883374254045     1.26961124751348     3.80883374254045
O     1.26961124751348     3.80883374254045     3.80883374254045
O     3.80883374254045     1.26961124751348     1.26961124751348
O     1.26961124751348     3.80883374254045     1.26961124751348
O     1.26961124751348     1.26961124751348     3.80883374254045