CRYSTAL
# Primitive lattice vectors in Angstrom
PRIMVEC
 3.96771953341489 0.00000000000000 2.29076394068602
 1.32257317780496 3.74080185056532 2.29076394068602
 0.00000000000000 0.00000000000000 4.58152788137204
# Cartesian coordinates in Angstrom.
PRIMCOORD
 3 1
K     1.32257317780496     0.93520046264133     2.29076394068602
K     3.96771953341489     2.80560138792399     6.87229182205807
O     0.00000000000000     0.00000000000000     0.00000000000000