CRYSTAL
# Primitive lattice vectors in Angstrom
PRIMVEC
 5.83614417720915 0.00000000000000 0.00000000000000
 -0.00000000000000 5.83614417720915 0.00000000000000
 0.00000000000000 0.00000000000000 5.83614417720915
# Cartesian coordinates in Angstrom.
PRIMCOORD
 14 1
K     0.00000000000000     0.00000000000000     0.00000000000000
K     2.91807208860457     2.91807208860457     0.00000000000000
K     2.91807208860457     0.00000000000000     2.91807208860457
K    -0.00000000000000     2.91807208860457     2.91807208860457
O     2.91807208860457     0.00000000000000     0.00000000000000
O    -0.00000000000000     2.91807208860457     0.00000000000000
O     0.00000000000000     0.00000000000000     2.91807208860457
O     2.91807208860457     2.91807208860457     2.91807208860457
O     4.37710813290686     4.37710813290686     1.45903604430229
O     4.37710813290686     1.45903604430229     4.37710813290686
O     1.45903604430229     4.37710813290686     4.37710813290686
O     4.37710813290686     1.45903604430229     1.45903604430229
O     1.45903604430229     4.37710813290686     1.45903604430229
O     1.45903604430229     1.45903604430229     4.37710813290686