CRYSTAL
# Primitive lattice vectors in Angstrom
PRIMVEC
 6.10546713594392 0.00000000000000 0.00000000000000
 -0.00000000000000 6.10546713594392 0.00000000000000
 0.00000000000000 0.00000000000000 6.10546713594392
# Cartesian coordinates in Angstrom.
PRIMCOORD
 10 1
K     1.52636678398598     1.52636678398598     1.52636678398598
K     4.57910035195794     4.57910035195794     1.52636678398598
K     4.57910035195794     1.52636678398598     4.57910035195794
K     1.52636678398598     4.57910035195794     4.57910035195794
O     3.05273356797196     0.00000000000000     0.00000000000000
O    -0.00000000000000     3.05273356797196     0.00000000000000
O     0.00000000000000     0.00000000000000     3.05273356797196
O     3.05273356797196     3.05273356797196     0.00000000000000
O     3.05273356797196     0.00000000000000     3.05273356797196
O    -0.00000000000000     3.05273356797196     3.05273356797196