CRYSTAL
# Primitive lattice vectors in Angstrom
PRIMVEC
 5.15018245147079 0.00000000000000 0.00000000000000
 -0.00000000000000 5.15018245147079 0.00000000000000
 0.00000000000000 0.00000000000000 5.15018245147079
# Cartesian coordinates in Angstrom.
PRIMCOORD
 4 1
K     0.00000000000000     0.00000000000000     0.00000000000000
O     2.57509122573540     0.00000000000000     0.00000000000000
O    -0.00000000000000     2.57509122573540     0.00000000000000
O     0.00000000000000     0.00000000000000     2.57509122573540