CRYSTAL
# Primitive lattice vectors in Angstrom
PRIMVEC
 3.39876259879278 0.00000000000000 1.96227650132465
 1.13292086626426 3.20438410833279 1.96227650132465
 0.00000000000000 0.00000000000000 3.92455300264929
# Cartesian coordinates in Angstrom.
PRIMCOORD
 2 1
K     0.00000000000000     0.00000000000000     0.00000000000000
O     2.26584173252852     1.60219205416639     3.92455300264929