CRYSTAL
# Primitive lattice vectors in Angstrom
PRIMVEC
 3.77074418922824 0.00000000000000 2.17704017269614
 1.25691472974275 3.55509171509741 2.17704017269614
 0.00000000000000 0.00000000000000 4.35408034539229
# Cartesian coordinates in Angstrom.
PRIMCOORD
 3 1
K     0.00000000000000     0.00000000000000     0.00000000000000
O     1.25691472974275     0.88877292877435     2.17704017269614
O     3.77074418922824     2.66631878632306     6.53112051808843