CRYSTAL
# Primitive lattice vectors in Angstrom
PRIMVEC
 4.08014990448049 0.00000000000000 0.00000000000000
 -0.00000000000000 4.08014990448049 0.00000000000000
 0.00000000000000 0.00000000000000 4.08014990448049
# Cartesian coordinates in Angstrom.
PRIMCOORD
 4 1
Kr     0.00000000000000     0.00000000000000     0.00000000000000
O     2.04007495224025     0.00000000000000     0.00000000000000
O    -0.00000000000000     2.04007495224025     0.00000000000000
O     0.00000000000000     0.00000000000000     2.04007495224025