CRYSTAL
# Primitive lattice vectors in Angstrom
PRIMVEC
 4.78056267969167 0.00000000000000 2.76005914999786
 1.59352089323056 4.50715771826308 2.76005914999786
 0.00000000000000 0.00000000000000 5.52011829999573
# Cartesian coordinates in Angstrom.
PRIMCOORD
 3 1
Kr     1.59352089323056     1.12678942956577     2.76005914999786
Kr     4.78056267969167     3.38036828869731     8.28017744999359
O     0.00000000000000     0.00000000000000     0.00000000000000