CRYSTAL
# Primitive lattice vectors in Angstrom
PRIMVEC
 3.52128580917554 0.00000000000000 2.03301530982111
 1.17376193639185 3.31990009888531 2.03301530982111
 0.00000000000000 0.00000000000000 4.06603061964221
# Cartesian coordinates in Angstrom.
PRIMCOORD
 3 1
Kr     0.00000000000000     0.00000000000000     0.00000000000000
O     1.17376193639185     0.82997502472133     2.03301530982111
O     3.52128580917554     2.48992507416398     6.09904592946332