CRYSTAL
# Primitive lattice vectors in Angstrom
PRIMVEC
 3.32673408082866 0.00000000000000 1.92069081708873
 1.10891136027622 3.13647497034445 1.92069081708873
 0.00000000000000 0.00000000000000 3.84138163417746
# Cartesian coordinates in Angstrom.
PRIMCOORD
 2 1
Kr     0.00000000000000     0.00000000000000     0.00000000000000
O     2.21782272055244     1.56823748517223     3.84138163417746