CRYSTAL
# Primitive lattice vectors in Angstrom
PRIMVEC
 5.79232558066512 0.00000000000000 0.00000000000000
 -0.00000000000000 5.79232558066512 0.00000000000000
 0.00000000000000 0.00000000000000 5.79232558066512
# Cartesian coordinates in Angstrom.
PRIMCOORD
 10 1
Kr     1.44808139516628     1.44808139516628     1.44808139516628
Kr     4.34424418549884     4.34424418549884     1.44808139516628
Kr     4.34424418549884     1.44808139516628     4.34424418549884
Kr     1.44808139516628     4.34424418549884     4.34424418549884
O     2.89616279033256     0.00000000000000     0.00000000000000
O    -0.00000000000000     2.89616279033256     0.00000000000000
O     0.00000000000000     0.00000000000000     2.89616279033256
O     2.89616279033256     2.89616279033256     0.00000000000000
O     2.89616279033256     0.00000000000000     2.89616279033256
O    -0.00000000000000     2.89616279033256     2.89616279033256