CRYSTAL
# Primitive lattice vectors in Angstrom
PRIMVEC
 5.77280646710206 0.00000000000000 0.00000000000000
 -0.00000000000000 5.77280646710206 0.00000000000000
 0.00000000000000 0.00000000000000 5.77280646710206
# Cartesian coordinates in Angstrom.
PRIMCOORD
 14 1
Kr     0.00000000000000     0.00000000000000     0.00000000000000
Kr     2.88640323355103     2.88640323355103     0.00000000000000
Kr     2.88640323355103     0.00000000000000     2.88640323355103
Kr    -0.00000000000000     2.88640323355103     2.88640323355103
O     2.88640323355103     0.00000000000000     0.00000000000000
O    -0.00000000000000     2.88640323355103     0.00000000000000
O     0.00000000000000     0.00000000000000     2.88640323355103
O     2.88640323355103     2.88640323355103     2.88640323355103
O     4.32960485032654     4.32960485032654     1.44320161677552
O     4.32960485032654     1.44320161677551     4.32960485032654
O     1.44320161677551     4.32960485032654     4.32960485032654
O     4.32960485032654     1.44320161677551     1.44320161677552
O     1.44320161677551     4.32960485032654     1.44320161677552
O     1.44320161677551     1.44320161677551     4.32960485032654