CRYSTAL
# Primitive lattice vectors in Angstrom
PRIMVEC
 3.91175393869902 0.00000000000000 2.25845218951146
 1.30391797956634 3.68803698184968 2.25845218951146
 0.00000000000000 0.00000000000000 4.51690437902291
# Cartesian coordinates in Angstrom.
PRIMCOORD
 3 1
La     1.30391797956634     0.92200924546242     2.25845218951146
La     3.91175393869902     2.76602773638726     6.77535656853437
O     0.00000000000000     0.00000000000000     0.00000000000000