CRYSTAL
# Primitive lattice vectors in Angstrom
PRIMVEC
 4.49122684925031 0.00000000000000 0.00000000000000
 -0.00000000000000 4.49122684925031 0.00000000000000
 0.00000000000000 0.00000000000000 4.49122684925031
# Cartesian coordinates in Angstrom.
PRIMCOORD
 4 1
La     0.00000000000000     0.00000000000000     0.00000000000000
O     2.24561342462515     0.00000000000000     0.00000000000000
O    -0.00000000000000     2.24561342462515     0.00000000000000
O     0.00000000000000     0.00000000000000     2.24561342462515