CRYSTAL
# Primitive lattice vectors in Angstrom
PRIMVEC
 5.74859983827210 0.00000000000000 0.00000000000000
 -0.00000000000000 5.74859983827210 0.00000000000000
 0.00000000000000 0.00000000000000 5.74859983827210
# Cartesian coordinates in Angstrom.
PRIMCOORD
 14 1
La     0.00000000000000     0.00000000000000     0.00000000000000
La     2.87429991913605     2.87429991913605     0.00000000000000
La     2.87429991913605     0.00000000000000     2.87429991913605
La    -0.00000000000000     2.87429991913605     2.87429991913605
O     2.87429991913605     0.00000000000000     0.00000000000000
O    -0.00000000000000     2.87429991913605     0.00000000000000
O     0.00000000000000     0.00000000000000     2.87429991913605
O     2.87429991913605     2.87429991913605     2.87429991913605
O     4.31144987870407     4.31144987870407     1.43714995956803
O     4.31144987870407     1.43714995956802     4.31144987870407
O     1.43714995956802     4.31144987870407     4.31144987870407
O     4.31144987870407     1.43714995956802     1.43714995956803
O     1.43714995956802     4.31144987870407     1.43714995956803
O     1.43714995956802     1.43714995956802     4.31144987870407