CRYSTAL
# Primitive lattice vectors in Angstrom
PRIMVEC
 5.67264749163680 0.00000000000000 0.00000000000000
 -0.00000000000000 5.67264749163680 0.00000000000000
 0.00000000000000 0.00000000000000 5.67264749163680
# Cartesian coordinates in Angstrom.
PRIMCOORD
 10 1
La     1.41816187290920     1.41816187290920     1.41816187290920
La     4.25448561872760     4.25448561872760     1.41816187290920
La     4.25448561872760     1.41816187290920     4.25448561872760
La     1.41816187290920     4.25448561872760     4.25448561872760
O     2.83632374581840     0.00000000000000     0.00000000000000
O    -0.00000000000000     2.83632374581840     0.00000000000000
O     0.00000000000000     0.00000000000000     2.83632374581840
O     2.83632374581840     2.83632374581840     0.00000000000000
O     2.83632374581840     0.00000000000000     2.83632374581840
O    -0.00000000000000     2.83632374581840     2.83632374581840