CRYSTAL
# Primitive lattice vectors in Angstrom
PRIMVEC
 3.52986952173613 0.00000000000000 2.03797111857861
 1.17662317391204 3.32799290069777 2.03797111857861
 0.00000000000000 0.00000000000000 4.07594223715722
# Cartesian coordinates in Angstrom.
PRIMCOORD
 3 1
La     0.00000000000000     0.00000000000000     0.00000000000000
O     1.17662317391204     0.83199822517444     2.03797111857861
O     3.52986952173613     2.49599467552333     6.11391335573582