CRYSTAL
# Primitive lattice vectors in Angstrom
PRIMVEC
 3.16234660719881 0.00000000000000 1.82578166493714
 1.05411553573294 2.98148897388340 1.82578166493714
 0.00000000000000 0.00000000000000 3.65156332987427
# Cartesian coordinates in Angstrom.
PRIMCOORD
 2 1
La     0.00000000000000     0.00000000000000     0.00000000000000
O     2.10823107146588     1.49074448694170     3.65156332987427