CRYSTAL
# Primitive lattice vectors in Angstrom
PRIMVEC
 2.83180700257525 0.00000000000000 1.63494453522989
 0.94393566752508 2.66985324604335 1.63494453522989
 0.00000000000000 0.00000000000000 3.26988907045977
# Cartesian coordinates in Angstrom.
PRIMCOORD
 3 1
Li     0.94393566752508     0.66746331151084     1.63494453522989
Li     2.83180700257525     2.00238993453251     4.90483360568966
O     0.00000000000000     0.00000000000000     0.00000000000000