CRYSTAL
# Primitive lattice vectors in Angstrom
PRIMVEC
 2.83949210117826 0.00000000000000 1.63938152897708
 0.94649736705942 2.67709882649171 1.63938152897708
 0.00000000000000 0.00000000000000 3.27876305795416
# Cartesian coordinates in Angstrom.
PRIMCOORD
 3 1
Li     0.00000000000000     0.00000000000000     0.00000000000000
O     0.94649736705942     0.66927470662293     1.63938152897708
O     2.83949210117826     2.00782411986878     4.91814458693125