CRYSTAL
# Primitive lattice vectors in Angstrom
PRIMVEC
 3.58475826813684 0.00000000000000 0.00000000000000
 -0.00000000000000 3.58475826813684 0.00000000000000
 0.00000000000000 0.00000000000000 3.58475826813684
# Cartesian coordinates in Angstrom.
PRIMCOORD
 4 1
Li     0.00000000000000     0.00000000000000     0.00000000000000
O     1.79237913406842     0.00000000000000     0.00000000000000
O    -0.00000000000000     1.79237913406842     0.00000000000000
O     0.00000000000000     0.00000000000000     1.79237913406842