CRYSTAL
# Primitive lattice vectors in Angstrom
PRIMVEC
 4.47387731081902 0.00000000000000 0.00000000000000
 -0.00000000000000 4.47387731081902 0.00000000000000
 0.00000000000000 0.00000000000000 4.47387731081902
# Cartesian coordinates in Angstrom.
PRIMCOORD
 10 1
Li     1.11846932770475     1.11846932770475     1.11846932770475
Li     3.35540798311426     3.35540798311426     1.11846932770475
Li     3.35540798311426     1.11846932770475     3.35540798311426
Li     1.11846932770475     3.35540798311426     3.35540798311426
O     2.23693865540951     0.00000000000000     0.00000000000000
O    -0.00000000000000     2.23693865540951     0.00000000000000
O     0.00000000000000     0.00000000000000     2.23693865540951
O     2.23693865540951     2.23693865540951     0.00000000000000
O     2.23693865540951     0.00000000000000     2.23693865540951
O    -0.00000000000000     2.23693865540951     2.23693865540951