CRYSTAL
# Primitive lattice vectors in Angstrom
PRIMVEC
 4.98243803392765 0.00000000000000 0.00000000000000
 -0.00000000000000 4.98243803392765 0.00000000000000
 0.00000000000000 0.00000000000000 4.98243803392765
# Cartesian coordinates in Angstrom.
PRIMCOORD
 14 1
Li     0.00000000000000     0.00000000000000     0.00000000000000
Li     2.49121901696382     2.49121901696382     0.00000000000000
Li     2.49121901696382     0.00000000000000     2.49121901696382
Li    -0.00000000000000     2.49121901696382     2.49121901696382
O     2.49121901696382     0.00000000000000     0.00000000000000
O    -0.00000000000000     2.49121901696382     0.00000000000000
O     0.00000000000000     0.00000000000000     2.49121901696382
O     2.49121901696382     2.49121901696382     2.49121901696383
O     3.73682852544574     3.73682852544574     1.24560950848191
O     3.73682852544574     1.24560950848191     3.73682852544574
O     1.24560950848191     3.73682852544574     3.73682852544574
O     3.73682852544574     1.24560950848191     1.24560950848191
O     1.24560950848191     3.73682852544574     1.24560950848191
O     1.24560950848191     1.24560950848191     3.73682852544574