CRYSTAL
# Primitive lattice vectors in Angstrom
PRIMVEC
 2.90021753981471 0.00000000000000 1.67444137732050
 0.96673917993824 2.73435131909219 1.67444137732050
 0.00000000000000 0.00000000000000 3.34888275464099
# Cartesian coordinates in Angstrom.
PRIMCOORD
 2 1
Lu     0.00000000000000     0.00000000000000     0.00000000000000
O     1.93347835987647     1.36717565954610     3.34888275464099