CRYSTAL
# Primitive lattice vectors in Angstrom
PRIMVEC
 3.67566400371426 0.00000000000000 2.12214560199505
 1.22522133457142 3.46544925651953 2.12214560199505
 0.00000000000000 0.00000000000000 4.24429120399009
# Cartesian coordinates in Angstrom.
PRIMCOORD
 3 1
Lu     1.22522133457142     0.86636231412988     2.12214560199504
Lu     3.67566400371426     2.59908694238965     6.36643680598513
O     0.00000000000000     0.00000000000000     0.00000000000000