CRYSTAL
# Primitive lattice vectors in Angstrom
PRIMVEC
 5.40482345683604 0.00000000000000 0.00000000000000
 -0.00000000000000 5.40482345683604 0.00000000000000
 0.00000000000000 0.00000000000000 5.40482345683604
# Cartesian coordinates in Angstrom.
PRIMCOORD
 14 1
Lu     0.00000000000000     0.00000000000000     0.00000000000000
Lu     2.70241172841802     2.70241172841802     0.00000000000000
Lu     2.70241172841802     0.00000000000000     2.70241172841802
Lu    -0.00000000000000     2.70241172841802     2.70241172841802
O     2.70241172841802     0.00000000000000     0.00000000000000
O    -0.00000000000000     2.70241172841802     0.00000000000000
O     0.00000000000000     0.00000000000000     2.70241172841802
O     2.70241172841802     2.70241172841802     2.70241172841802
O     4.05361759262703     4.05361759262703     1.35120586420901
O     4.05361759262703     1.35120586420901     4.05361759262703
O     1.35120586420901     4.05361759262703     4.05361759262703
O     4.05361759262703     1.35120586420901     1.35120586420901
O     1.35120586420901     4.05361759262703     1.35120586420901
O     1.35120586420901     1.35120586420901     4.05361759262703