CRYSTAL
# Primitive lattice vectors in Angstrom
PRIMVEC
 5.24682005603848 0.00000000000000 0.00000000000000
 -0.00000000000000 5.24682005603848 0.00000000000000
 0.00000000000000 0.00000000000000 5.24682005603848
# Cartesian coordinates in Angstrom.
PRIMCOORD
 10 1
Lu     1.31170501400962     1.31170501400962     1.31170501400962
Lu     3.93511504202886     3.93511504202886     1.31170501400962
Lu     3.93511504202886     1.31170501400962     3.93511504202886
Lu     1.31170501400962     3.93511504202886     3.93511504202886
O     2.62341002801924     0.00000000000000     0.00000000000000
O    -0.00000000000000     2.62341002801924     0.00000000000000
O     0.00000000000000     0.00000000000000     2.62341002801924
O     2.62341002801924     2.62341002801924     0.00000000000000
O     2.62341002801924     0.00000000000000     2.62341002801924
O    -0.00000000000000     2.62341002801924     2.62341002801924