CRYSTAL
# Primitive lattice vectors in Angstrom
PRIMVEC
 3.24683627283770 0.00000000000000 1.87456179613749
 1.08227875761257 3.06114659456799 1.87456179613749
 0.00000000000000 0.00000000000000 3.74912359227497
# Cartesian coordinates in Angstrom.
PRIMCOORD
 3 1
Lu     0.00000000000000     0.00000000000000     0.00000000000000
O     1.08227875761257     0.76528664864200     1.87456179613749
O     3.24683627283770     2.29585994592599     5.62368538841246