CRYSTAL
# Primitive lattice vectors in Angstrom
PRIMVEC
 5.17880911934241 0.00000000000000 0.00000000000000
 -0.00000000000000 5.17880911934241 0.00000000000000
 0.00000000000000 0.00000000000000 5.17880911934241
# Cartesian coordinates in Angstrom.
PRIMCOORD
 14 1
Mg     0.00000000000000     0.00000000000000     0.00000000000000
Mg     2.58940455967121     2.58940455967121     0.00000000000000
Mg     2.58940455967121     0.00000000000000     2.58940455967121
Mg    -0.00000000000000     2.58940455967121     2.58940455967121
O     2.58940455967121     0.00000000000000     0.00000000000000
O    -0.00000000000000     2.58940455967121     0.00000000000000
O     0.00000000000000     0.00000000000000     2.58940455967121
O     2.58940455967121     2.58940455967121     2.58940455967121
O     3.88410683950681     3.88410683950681     1.29470227983560
O     3.88410683950681     1.29470227983560     3.88410683950681
O     1.29470227983560     3.88410683950681     3.88410683950681
O     3.88410683950681     1.29470227983560     1.29470227983560
O     1.29470227983560     3.88410683950681     1.29470227983560
O     1.29470227983560     1.29470227983560     3.88410683950681