CRYSTAL
# Primitive lattice vectors in Angstrom
PRIMVEC
 4.84232389926848 0.00000000000000 0.00000000000000
 -0.00000000000000 4.84232389926848 0.00000000000000
 0.00000000000000 0.00000000000000 4.84232389926848
# Cartesian coordinates in Angstrom.
PRIMCOORD
 10 1
Mg     1.21058097481712     1.21058097481712     1.21058097481712
Mg     3.63174292445136     3.63174292445136     1.21058097481712
Mg     3.63174292445136     1.21058097481712     3.63174292445136
Mg     1.21058097481712     3.63174292445136     3.63174292445136
O     2.42116194963424     0.00000000000000     0.00000000000000
O    -0.00000000000000     2.42116194963424     0.00000000000000
O     0.00000000000000     0.00000000000000     2.42116194963424
O     2.42116194963424     2.42116194963424     0.00000000000000
O     2.42116194963424     0.00000000000000     2.42116194963424
O    -0.00000000000000     2.42116194963424     2.42116194963424