CRYSTAL
# Primitive lattice vectors in Angstrom
PRIMVEC
 3.45341409061661 0.00000000000000 1.99382955484074
 1.15113803020554 3.25591002896024 1.99382955484074
 0.00000000000000 0.00000000000000 3.98765910968149
# Cartesian coordinates in Angstrom.
PRIMCOORD
 3 1
Mg     1.15113803020554     0.81397750724006     1.99382955484074
Mg     3.45341409061661     2.44193252172018     5.98148866452223
O     0.00000000000000     0.00000000000000     0.00000000000000