CRYSTAL
# Primitive lattice vectors in Angstrom
PRIMVEC
 3.96086037011597 0.00000000000000 0.00000000000000
 -0.00000000000000 3.96086037011597 0.00000000000000
 0.00000000000000 0.00000000000000 3.96086037011597
# Cartesian coordinates in Angstrom.
PRIMCOORD
 4 1
Mg     0.00000000000000     0.00000000000000     0.00000000000000
O     1.98043018505799     0.00000000000000     0.00000000000000
O    -0.00000000000000     1.98043018505799     0.00000000000000
O     0.00000000000000     0.00000000000000     1.98043018505799