CRYSTAL
# Primitive lattice vectors in Angstrom
PRIMVEC
 2.60521519705218 0.00000000000000 1.50412169531498
 0.86840506568406 2.45622044304779 1.50412169531498
 0.00000000000000 0.00000000000000 3.00824339062996
# Cartesian coordinates in Angstrom.
PRIMCOORD
 2 1
Mg     0.00000000000000     0.00000000000000     0.00000000000000
O     1.73681013136812     1.22811022152390     3.00824339062996