CRYSTAL
# Primitive lattice vectors in Angstrom
PRIMVEC
 3.04016744774537 0.00000000000000 1.75524149433733
 1.01338914924846 2.86629735765780 1.75524149433733
 0.00000000000000 0.00000000000000 3.51048298867466
# Cartesian coordinates in Angstrom.
PRIMCOORD
 3 1
Mg     0.00000000000000     0.00000000000000     0.00000000000000
O     1.01338914924846     0.71657433941445     1.75524149433733
O     3.04016744774537     2.14972301824335     5.26572448301198