CRYSTAL
# Primitive lattice vectors in Angstrom
PRIMVEC
 2.51375165648500 0.00000000000000 1.45131519554749
 0.83791721882833 2.36998779002595 1.45131519554749
 0.00000000000000 0.00000000000000 2.90263039109497
# Cartesian coordinates in Angstrom.
PRIMCOORD
 2 1
Mn     0.00000000000000     0.00000000000000     0.00000000000000
O     1.67583443765667     1.18499389501298     2.90263039109497