CRYSTAL
# Primitive lattice vectors in Angstrom
PRIMVEC
 4.86740531643103 0.00000000000000 0.00000000000000
 -0.00000000000000 4.86740531643103 0.00000000000000
 0.00000000000000 0.00000000000000 4.86740531643103
# Cartesian coordinates in Angstrom.
PRIMCOORD
 14 1
Mn     0.00000000000000     0.00000000000000     0.00000000000000
Mn     2.43370265821551     2.43370265821551     0.00000000000000
Mn     2.43370265821551     0.00000000000000     2.43370265821551
Mn    -0.00000000000000     2.43370265821551     2.43370265821551
O     2.43370265821551     0.00000000000000     0.00000000000000
O    -0.00000000000000     2.43370265821551     0.00000000000000
O     0.00000000000000     0.00000000000000     2.43370265821551
O     2.43370265821551     2.43370265821551     2.43370265821552
O     3.65055398732327     3.65055398732327     1.21685132910776
O     3.65055398732327     1.21685132910776     3.65055398732327
O     1.21685132910776     3.65055398732327     3.65055398732327
O     3.65055398732327     1.21685132910776     1.21685132910776
O     1.21685132910776     3.65055398732327     1.21685132910776
O     1.21685132910776     1.21685132910776     3.65055398732327