CRYSTAL
# Primitive lattice vectors in Angstrom
PRIMVEC
 4.52934512489840 0.00000000000000 0.00000000000000
 -0.00000000000000 4.52934512489840 0.00000000000000
 0.00000000000000 0.00000000000000 4.52934512489840
# Cartesian coordinates in Angstrom.
PRIMCOORD
 10 1
Mn     1.13233628122460     1.13233628122460     1.13233628122460
Mn     3.39700884367380     3.39700884367380     1.13233628122460
Mn     3.39700884367380     1.13233628122460     3.39700884367380
Mn     1.13233628122460     3.39700884367380     3.39700884367380
O     2.26467256244920     0.00000000000000     0.00000000000000
O    -0.00000000000000     2.26467256244920     0.00000000000000
O     0.00000000000000     0.00000000000000     2.26467256244920
O     2.26467256244920     2.26467256244920     0.00000000000000
O     2.26467256244920     0.00000000000000     2.26467256244920
O    -0.00000000000000     2.26467256244920     2.26467256244920