CRYSTAL
# Primitive lattice vectors in Angstrom
PRIMVEC
 2.82903375232799 0.00000000000000 1.63334339845310
 0.94301125077600 2.66723860063566 1.63334339845310
 0.00000000000000 0.00000000000000 3.26668679690620
# Cartesian coordinates in Angstrom.
PRIMCOORD
 3 1
Mn     0.00000000000000     0.00000000000000     0.00000000000000
O     0.94301125077600     0.66680965015891     1.63334339845310
O     2.82903375232799     2.00042895047674     4.90003019535930