CRYSTAL
# Primitive lattice vectors in Angstrom
PRIMVEC
 3.57330585540553 0.00000000000000 0.00000000000000
 -0.00000000000000 3.57330585540553 0.00000000000000
 0.00000000000000 0.00000000000000 3.57330585540553
# Cartesian coordinates in Angstrom.
PRIMCOORD
 4 1
Mn     0.00000000000000     0.00000000000000     0.00000000000000
O     1.78665292770276     0.00000000000000     0.00000000000000
O    -0.00000000000000     1.78665292770276     0.00000000000000
O     0.00000000000000     0.00000000000000     1.78665292770276