CRYSTAL
# Primitive lattice vectors in Angstrom
PRIMVEC
 3.00596519825443 0.00000000000000 1.73549481638684
 1.00198839941814 2.83405116759529 1.73549481638684
 0.00000000000000 0.00000000000000 3.47098963277368
# Cartesian coordinates in Angstrom.
PRIMCOORD
 3 1
Mn     1.00198839941814     0.70851279189882     1.73549481638684
Mn     3.00596519825443     2.12553837569647     5.20648444916052
O     0.00000000000000     0.00000000000000     0.00000000000000