CRYSTAL
# Primitive lattice vectors in Angstrom
PRIMVEC
 3.81708894370947 0.00000000000000 0.00000000000000
 -0.00000000000000 3.81708894370947 0.00000000000000
 0.00000000000000 0.00000000000000 3.81708894370947
# Cartesian coordinates in Angstrom.
PRIMCOORD
 4 1
Mo     0.00000000000000     0.00000000000000     0.00000000000000
O     1.90854447185473     0.00000000000000     0.00000000000000
O    -0.00000000000000     1.90854447185473     0.00000000000000
O     0.00000000000000     0.00000000000000     1.90854447185473