CRYSTAL
# Primitive lattice vectors in Angstrom
PRIMVEC
 3.01125328246609 0.00000000000000 1.73854789322994
 1.00375109415536 2.83903682120270 1.73854789322994
 0.00000000000000 0.00000000000000 3.47709578645988
# Cartesian coordinates in Angstrom.
PRIMCOORD
 3 1
Mo     0.00000000000000     0.00000000000000     0.00000000000000
O     1.00375109415536     0.70975920530067     1.73854789322994
O     3.01125328246609     2.12927761590202     5.21564367968982