CRYSTAL
# Primitive lattice vectors in Angstrom
PRIMVEC
 3.31666356622104 0.00000000000000 1.91487660276914
 1.10555452207368 3.12698039811901 1.91487660276914
 0.00000000000000 0.00000000000000 3.82975320553829
# Cartesian coordinates in Angstrom.
PRIMCOORD
 3 1
Mo     1.10555452207368     0.78174509952975     1.91487660276914
Mo     3.31666356622104     2.34523529858926     5.74462980830743
O     0.00000000000000     0.00000000000000     0.00000000000000