CRYSTAL
# Primitive lattice vectors in Angstrom
PRIMVEC
 5.01051619884790 0.00000000000000 0.00000000000000
 -0.00000000000000 5.01051619884790 0.00000000000000
 0.00000000000000 0.00000000000000 5.01051619884790
# Cartesian coordinates in Angstrom.
PRIMCOORD
 14 1
Mo     0.00000000000000     0.00000000000000     0.00000000000000
Mo     2.50525809942395     2.50525809942395     0.00000000000000
Mo     2.50525809942395     0.00000000000000     2.50525809942395
Mo    -0.00000000000000     2.50525809942395     2.50525809942395
O     2.50525809942395     0.00000000000000     0.00000000000000
O    -0.00000000000000     2.50525809942395     0.00000000000000
O     0.00000000000000     0.00000000000000     2.50525809942395
O     2.50525809942395     2.50525809942395     2.50525809942395
O     3.75788714913593     3.75788714913593     1.25262904971198
O     3.75788714913593     1.25262904971198     3.75788714913593
O     1.25262904971198     3.75788714913593     3.75788714913593
O     3.75788714913593     1.25262904971198     1.25262904971198
O     1.25262904971198     3.75788714913593     1.25262904971198
O     1.25262904971198     1.25262904971198     3.75788714913593