CRYSTAL
# Primitive lattice vectors in Angstrom
PRIMVEC
 4.84202434073651 0.00000000000000 0.00000000000000
 -0.00000000000000 4.84202434073651 0.00000000000000
 0.00000000000000 0.00000000000000 4.84202434073651
# Cartesian coordinates in Angstrom.
PRIMCOORD
 10 1
Mo     1.21050608518413     1.21050608518413     1.21050608518413
Mo     3.63151825555238     3.63151825555238     1.21050608518413
Mo     3.63151825555238     1.21050608518413     3.63151825555238
Mo     1.21050608518413     3.63151825555238     3.63151825555238
O     2.42101217036825     0.00000000000000     0.00000000000000
O    -0.00000000000000     2.42101217036825     0.00000000000000
O     0.00000000000000     0.00000000000000     2.42101217036825
O     2.42101217036825     2.42101217036825     0.00000000000000
O     2.42101217036825     0.00000000000000     2.42101217036825
O    -0.00000000000000     2.42101217036825     2.42101217036825