CRYSTAL
# Primitive lattice vectors in Angstrom
PRIMVEC
 2.70366263153901 0.00000000000000 1.56096034811698
 0.90122087717967 2.54903757440253 1.56096034811698
 0.00000000000000 0.00000000000000 3.12192069623396
# Cartesian coordinates in Angstrom.
PRIMCOORD
 2 1
Mo     0.00000000000000     0.00000000000000     0.00000000000000
O     1.80244175435934     1.27451878720127     3.12192069623396