CRYSTAL
# Primitive lattice vectors in Angstrom
PRIMVEC
 4.85526573663763 0.00000000000000 0.00000000000000
 -0.00000000000000 4.85526573663763 0.00000000000000
 0.00000000000000 0.00000000000000 4.85526573663763
# Cartesian coordinates in Angstrom.
PRIMCOORD
 14 1
N     0.00000000000000     0.00000000000000     0.00000000000000
N     2.42763286831882     2.42763286831882     0.00000000000000
N     2.42763286831882     0.00000000000000     2.42763286831882
N    -0.00000000000000     2.42763286831882     2.42763286831882
O     2.42763286831882     0.00000000000000     0.00000000000000
O    -0.00000000000000     2.42763286831882     0.00000000000000
O     0.00000000000000     0.00000000000000     2.42763286831882
O     2.42763286831882     2.42763286831882     2.42763286831882
O     3.64144930247822     3.64144930247822     1.21381643415941
O     3.64144930247822     1.21381643415941     3.64144930247822
O     1.21381643415941     3.64144930247822     3.64144930247822
O     3.64144930247822     1.21381643415941     1.21381643415941
O     1.21381643415941     3.64144930247822     1.21381643415941
O     1.21381643415941     1.21381643415941     3.64144930247822