CRYSTAL
# Primitive lattice vectors in Angstrom
PRIMVEC
 4.50354930927999 0.00000000000000 0.00000000000000
 -0.00000000000000 4.50354930927999 0.00000000000000
 0.00000000000000 0.00000000000000 4.50354930927999
# Cartesian coordinates in Angstrom.
PRIMCOORD
 10 1
N     1.12588732732000     1.12588732732000     1.12588732732000
N     3.37766198195999     3.37766198195999     1.12588732732000
N     3.37766198195999     1.12588732732000     3.37766198195999
N     1.12588732732000     3.37766198195999     3.37766198195999
O     2.25177465463999     0.00000000000000     0.00000000000000
O    -0.00000000000000     2.25177465463999     0.00000000000000
O     0.00000000000000     0.00000000000000     2.25177465463999
O     2.25177465463999     2.25177465463999     0.00000000000000
O     2.25177465463999     0.00000000000000     2.25177465463999
O    -0.00000000000000     2.25177465463999     2.25177465463999