CRYSTAL
# Primitive lattice vectors in Angstrom
PRIMVEC
 2.90433480205702 0.00000000000000 1.67681847978442
 0.96811160068568 2.73823311116082 1.67681847978442
 0.00000000000000 0.00000000000000 3.35363695956884
# Cartesian coordinates in Angstrom.
PRIMCOORD
 3 1
N     0.96811160068567     0.68455827779020     1.67681847978442
N     2.90433480205702     2.05367483337061     5.03045543935327
O     0.00000000000000     0.00000000000000     0.00000000000000