CRYSTAL
# Primitive lattice vectors in Angstrom
PRIMVEC
 2.86157707943959 0.00000000000000 1.65213229712131
 0.95385902647986 2.69792074367964 1.65213229712131
 0.00000000000000 0.00000000000000 3.30426459424262
# Cartesian coordinates in Angstrom.
PRIMCOORD
 3 1
N     0.00000000000000     0.00000000000000     0.00000000000000
O     0.95385902647986     0.67448018591991     1.65213229712131
O     2.86157707943959     2.02344055775973     4.95639689136393