CRYSTAL
# Primitive lattice vectors in Angstrom
PRIMVEC
 3.41107762059366 0.00000000000000 0.00000000000000
 -0.00000000000000 3.41107762059366 0.00000000000000
 0.00000000000000 0.00000000000000 3.41107762059366
# Cartesian coordinates in Angstrom.
PRIMCOORD
 4 1
N     0.00000000000000     0.00000000000000     0.00000000000000
O     1.70553881029683     0.00000000000000     0.00000000000000
O    -0.00000000000000     1.70553881029683     0.00000000000000
O     0.00000000000000     0.00000000000000     1.70553881029683