CRYSTAL
# Primitive lattice vectors in Angstrom
PRIMVEC
 2.41511459617429 0.00000000000000 1.39436706222502
 0.80503819872476 2.27699187772993 1.39436706222502
 0.00000000000000 0.00000000000000 2.78873412445004
# Cartesian coordinates in Angstrom.
PRIMCOORD
 2 1
N     0.00000000000000     0.00000000000000     0.00000000000000
O     1.61007639744952     1.13849593886497     2.78873412445004