CRYSTAL
# Primitive lattice vectors in Angstrom
PRIMVEC
 2.94341871779695 0.00000000000000 1.69938358905785
 0.98113957259898 2.77508178030085 1.69938358905785
 0.00000000000000 0.00000000000000 3.39876717811570
# Cartesian coordinates in Angstrom.
PRIMCOORD
 2 1
Na     0.00000000000000     0.00000000000000     0.00000000000000
O     1.96227914519797     1.38754089015042     3.39876717811570