CRYSTAL
# Primitive lattice vectors in Angstrom
PRIMVEC
 3.22958365374294 0.00000000000000 1.86460099185890
 1.07652788458098 3.04488066929447 1.86460099185890
 0.00000000000000 0.00000000000000 3.72920198371780
# Cartesian coordinates in Angstrom.
PRIMCOORD
 3 1
Na     0.00000000000000     0.00000000000000     0.00000000000000
O     1.07652788458098     0.76122016732362     1.86460099185890
O     3.22958365374294     2.28366050197086     5.59380297557670