CRYSTAL
# Primitive lattice vectors in Angstrom
PRIMVEC
 5.29790430064294 0.00000000000000 0.00000000000000
 -0.00000000000000 5.29790430064294 0.00000000000000
 0.00000000000000 0.00000000000000 5.29790430064294
# Cartesian coordinates in Angstrom.
PRIMCOORD
 14 1
Na     0.00000000000000     0.00000000000000     0.00000000000000
Na     2.64895215032147     2.64895215032147     0.00000000000000
Na     2.64895215032147     0.00000000000000     2.64895215032147
Na    -0.00000000000000     2.64895215032147     2.64895215032147
O     2.64895215032147     0.00000000000000     0.00000000000000
O    -0.00000000000000     2.64895215032147     0.00000000000000
O     0.00000000000000     0.00000000000000     2.64895215032147
O     2.64895215032147     2.64895215032147     2.64895215032147
O     3.97342822548221     3.97342822548221     1.32447607516074
O     3.97342822548221     1.32447607516074     3.97342822548221
O     1.32447607516073     3.97342822548221     3.97342822548221
O     3.97342822548221     1.32447607516074     1.32447607516074
O     1.32447607516073     3.97342822548221     1.32447607516074
O     1.32447607516074     1.32447607516074     3.97342822548221