CRYSTAL
# Primitive lattice vectors in Angstrom
PRIMVEC
 5.21339830740747 0.00000000000000 0.00000000000000
 -0.00000000000000 5.21339830740747 0.00000000000000
 0.00000000000000 0.00000000000000 5.21339830740747
# Cartesian coordinates in Angstrom.
PRIMCOORD
 10 1
Na     1.30334957685187     1.30334957685187     1.30334957685187
Na     3.91004873055560     3.91004873055560     1.30334957685187
Na     3.91004873055560     1.30334957685187     3.91004873055560
Na     1.30334957685187     3.91004873055560     3.91004873055560
O     2.60669915370373     0.00000000000000     0.00000000000000
O    -0.00000000000000     2.60669915370373     0.00000000000000
O     0.00000000000000     0.00000000000000     2.60669915370373
O     2.60669915370373     2.60669915370373     0.00000000000000
O     2.60669915370373     0.00000000000000     2.60669915370373
O    -0.00000000000000     2.60669915370373     2.60669915370373