CRYSTAL
# Primitive lattice vectors in Angstrom
PRIMVEC
 3.42445550957883 0.00000000000000 1.97711031028323
 1.14148516985961 3.22860761692643 1.97711031028323
 0.00000000000000 0.00000000000000 3.95422062056647
# Cartesian coordinates in Angstrom.
PRIMCOORD
 3 1
Na     1.14148516985961     0.80715190423161     1.97711031028323
Na     3.42445550957883     2.42145571269482     5.93133093084970
O     0.00000000000000     0.00000000000000     0.00000000000000