CRYSTAL
# Primitive lattice vectors in Angstrom
PRIMVEC
 4.34760570996307 0.00000000000000 0.00000000000000
 -0.00000000000000 4.34760570996307 0.00000000000000
 0.00000000000000 0.00000000000000 4.34760570996307
# Cartesian coordinates in Angstrom.
PRIMCOORD
 4 1
Na     0.00000000000000     0.00000000000000     0.00000000000000
O     2.17380285498154     0.00000000000000     0.00000000000000
O    -0.00000000000000     2.17380285498154     0.00000000000000
O     0.00000000000000     0.00000000000000     2.17380285498154