CRYSTAL
# Primitive lattice vectors in Angstrom
PRIMVEC
 3.94981794041037 0.00000000000000 0.00000000000000
 -0.00000000000000 3.94981794041037 0.00000000000000
 0.00000000000000 0.00000000000000 3.94981794041037
# Cartesian coordinates in Angstrom.
PRIMCOORD
 4 1
Nb     0.00000000000000     0.00000000000000     0.00000000000000
O     1.97490897020518     0.00000000000000     0.00000000000000
O    -0.00000000000000     1.97490897020518     0.00000000000000
O     0.00000000000000     0.00000000000000     1.97490897020518