CRYSTAL
# Primitive lattice vectors in Angstrom
PRIMVEC
 2.73919870249257 0.00000000000000 1.58147710824796
 0.91306623416419 2.58254130339985 1.58147710824796
 0.00000000000000 0.00000000000000 3.16295421649592
# Cartesian coordinates in Angstrom.
PRIMCOORD
 2 1
Nb     0.00000000000000     0.00000000000000     0.00000000000000
O     1.82613246832838     1.29127065169993     3.16295421649592