CRYSTAL
# Primitive lattice vectors in Angstrom
PRIMVEC
 3.06180205833302 0.00000000000000 1.76773224258392
 1.02060068611101 2.88669466413094 1.76773224258392
 0.00000000000000 0.00000000000000 3.53546448516784
# Cartesian coordinates in Angstrom.
PRIMCOORD
 3 1
Nb     0.00000000000000     0.00000000000000     0.00000000000000
O     1.02060068611101     0.72167366603274     1.76773224258392
O     3.06180205833302     2.16502099809821     5.30319672775176