CRYSTAL
# Primitive lattice vectors in Angstrom
PRIMVEC
 4.93457392238933 0.00000000000000 0.00000000000000
 -0.00000000000000 4.93457392238933 0.00000000000000
 0.00000000000000 0.00000000000000 4.93457392238933
# Cartesian coordinates in Angstrom.
PRIMCOORD
 10 1
Nb     1.23364348059733     1.23364348059733     1.23364348059733
Nb     3.70093044179200     3.70093044179200     1.23364348059733
Nb     3.70093044179200     1.23364348059733     3.70093044179200
Nb     1.23364348059733     3.70093044179200     3.70093044179200
O     2.46728696119466     0.00000000000000     0.00000000000000
O    -0.00000000000000     2.46728696119466     0.00000000000000
O     0.00000000000000     0.00000000000000     2.46728696119466
O     2.46728696119466     2.46728696119466     0.00000000000000
O     2.46728696119466     0.00000000000000     2.46728696119466
O    -0.00000000000000     2.46728696119466     2.46728696119466