CRYSTAL
# Primitive lattice vectors in Angstrom
PRIMVEC
 3.41317268075314 0.00000000000000 1.97059616602350
 1.13772422691771 3.21797006389495 1.97059616602350
 0.00000000000000 0.00000000000000 3.94119233204701
# Cartesian coordinates in Angstrom.
PRIMCOORD
 3 1
Nb     1.13772422691771     0.80449251597374     1.97059616602350
Nb     3.41317268075314     2.41347754792121     5.91178849807051
O     0.00000000000000     0.00000000000000     0.00000000000000