CRYSTAL
# Primitive lattice vectors in Angstrom
PRIMVEC
 5.08588726089787 0.00000000000000 0.00000000000000
 -0.00000000000000 5.08588726089787 0.00000000000000
 0.00000000000000 0.00000000000000 5.08588726089787
# Cartesian coordinates in Angstrom.
PRIMCOORD
 14 1
Nb     0.00000000000000     0.00000000000000     0.00000000000000
Nb     2.54294363044894     2.54294363044894     0.00000000000000
Nb     2.54294363044894     0.00000000000000     2.54294363044894
Nb    -0.00000000000000     2.54294363044894     2.54294363044894
O     2.54294363044894     0.00000000000000     0.00000000000000
O    -0.00000000000000     2.54294363044894     0.00000000000000
O     0.00000000000000     0.00000000000000     2.54294363044894
O     2.54294363044894     2.54294363044894     2.54294363044894
O     3.81441544567340     3.81441544567341     1.27147181522447
O     3.81441544567341     1.27147181522447     3.81441544567341
O     1.27147181522447     3.81441544567341     3.81441544567341
O     3.81441544567341     1.27147181522447     1.27147181522447
O     1.27147181522447     3.81441544567341     1.27147181522447
O     1.27147181522447     1.27147181522447     3.81441544567341