CRYSTAL
# Primitive lattice vectors in Angstrom
PRIMVEC
 3.00225505897084 0.00000000000000 1.73335276647273
 1.00075168632361 2.83055321473320 1.73335276647273
 0.00000000000000 0.00000000000000 3.46670553294546
# Cartesian coordinates in Angstrom.
PRIMCOORD
 2 1
Nd     0.00000000000000     0.00000000000000     0.00000000000000
O     2.00150337264723     1.41527660736660     3.46670553294546