CRYSTAL
# Primitive lattice vectors in Angstrom
PRIMVEC
 4.17256178175614 0.00000000000000 0.00000000000000
 -0.00000000000000 4.17256178175614 0.00000000000000
 0.00000000000000 0.00000000000000 4.17256178175614
# Cartesian coordinates in Angstrom.
PRIMCOORD
 4 1
Nd     0.00000000000000     0.00000000000000     0.00000000000000
O     2.08628089087807     0.00000000000000     0.00000000000000
O    -0.00000000000000     2.08628089087807     0.00000000000000
O     0.00000000000000     0.00000000000000     2.08628089087807