CRYSTAL
# Primitive lattice vectors in Angstrom
PRIMVEC
 3.59438198593151 0.00000000000000 2.07521740714790
 1.19812732864384 3.38881583523592 2.07521740714790
 0.00000000000000 0.00000000000000 4.15043481429580
# Cartesian coordinates in Angstrom.
PRIMCOORD
 3 1
Nd     1.19812732864384     0.84720395880898     2.07521740714790
Nd     3.59438198593151     2.54161187642694     6.22565222144370
O     0.00000000000000     0.00000000000000     0.00000000000000