CRYSTAL
# Primitive lattice vectors in Angstrom
PRIMVEC
 3.29922356728134 0.00000000000000 1.90480761468664
 1.09974118909378 3.11053780943348 1.90480761468664
 0.00000000000000 0.00000000000000 3.80961522937328
# Cartesian coordinates in Angstrom.
PRIMCOORD
 3 1
Nd     0.00000000000000     0.00000000000000     0.00000000000000
O     1.09974118909378     0.77763445235837     1.90480761468664
O     3.29922356728134     2.33290335707511     5.71442284405992