CRYSTAL
# Primitive lattice vectors in Angstrom
PRIMVEC
 5.42231127621568 0.00000000000000 0.00000000000000
 -0.00000000000000 5.42231127621568 0.00000000000000
 0.00000000000000 0.00000000000000 5.42231127621568
# Cartesian coordinates in Angstrom.
PRIMCOORD
 14 1
Nd     0.00000000000000     0.00000000000000     0.00000000000000
Nd     2.71115563810784     2.71115563810784     0.00000000000000
Nd     2.71115563810784     0.00000000000000     2.71115563810784
Nd    -0.00000000000000     2.71115563810784     2.71115563810784
O     2.71115563810784     0.00000000000000     0.00000000000000
O    -0.00000000000000     2.71115563810784     0.00000000000000
O     0.00000000000000     0.00000000000000     2.71115563810784
O     2.71115563810784     2.71115563810784     2.71115563810784
O     4.06673345716176     4.06673345716176     1.35557781905392
O     4.06673345716176     1.35557781905392     4.06673345716176
O     1.35557781905392     4.06673345716176     4.06673345716176
O     4.06673345716176     1.35557781905392     1.35557781905392
O     1.35557781905392     4.06673345716176     1.35557781905392
O     1.35557781905392     1.35557781905392     4.06673345716176