CRYSTAL
# Primitive lattice vectors in Angstrom
PRIMVEC
 5.39777253451788 0.00000000000000 0.00000000000000
 -0.00000000000000 5.39777253451788 0.00000000000000
 0.00000000000000 0.00000000000000 5.39777253451788
# Cartesian coordinates in Angstrom.
PRIMCOORD
 10 1
Nd     1.34944313362947     1.34944313362947     1.34944313362947
Nd     4.04832940088841     4.04832940088841     1.34944313362947
Nd     4.04832940088841     1.34944313362947     4.04832940088841
Nd     1.34944313362947     4.04832940088841     4.04832940088841
O     2.69888626725894     0.00000000000000     0.00000000000000
O    -0.00000000000000     2.69888626725894     0.00000000000000
O     0.00000000000000     0.00000000000000     2.69888626725894
O     2.69888626725894     2.69888626725894     0.00000000000000
O     2.69888626725894     0.00000000000000     2.69888626725894
O    -0.00000000000000     2.69888626725894     2.69888626725894