CRYSTAL
# Primitive lattice vectors in Angstrom
PRIMVEC
 4.44775335334727 0.00000000000000 2.56791159584411
 1.48258445111576 4.19338207626275 2.56791159584411
 0.00000000000000 0.00000000000000 5.13582319168821
# Cartesian coordinates in Angstrom.
PRIMCOORD
 3 1
Ne     1.48258445111576     1.04834551906569     2.56791159584411
Ne     4.44775335334727     3.14503655719706     7.70373478753232
O     0.00000000000000     0.00000000000000     0.00000000000000