CRYSTAL
# Primitive lattice vectors in Angstrom
PRIMVEC
 5.18055004684295 0.00000000000000 0.00000000000000
 -0.00000000000000 5.18055004684295 0.00000000000000
 0.00000000000000 0.00000000000000 5.18055004684295
# Cartesian coordinates in Angstrom.
PRIMCOORD
 14 1
Ne     0.00000000000000     0.00000000000000     0.00000000000000
Ne     2.59027502342148     2.59027502342148     0.00000000000000
Ne     2.59027502342148     0.00000000000000     2.59027502342148
Ne    -0.00000000000000     2.59027502342148     2.59027502342148
O     2.59027502342148     0.00000000000000     0.00000000000000
O    -0.00000000000000     2.59027502342148     0.00000000000000
O     0.00000000000000     0.00000000000000     2.59027502342148
O     2.59027502342148     2.59027502342148     2.59027502342148
O     3.88541253513221     3.88541253513221     1.29513751171074
O     3.88541253513221     1.29513751171074     3.88541253513221
O     1.29513751171074     3.88541253513221     3.88541253513221
O     3.88541253513221     1.29513751171074     1.29513751171074
O     1.29513751171074     3.88541253513221     1.29513751171074
O     1.29513751171074     1.29513751171074     3.88541253513221