CRYSTAL
# Primitive lattice vectors in Angstrom
PRIMVEC
 5.47247993859056 0.00000000000000 0.00000000000000
 -0.00000000000000 5.47247993859056 0.00000000000000
 0.00000000000000 0.00000000000000 5.47247993859056
# Cartesian coordinates in Angstrom.
PRIMCOORD
 10 1
Ne     1.36811998464764     1.36811998464764     1.36811998464764
Ne     4.10435995394292     4.10435995394292     1.36811998464764
Ne     4.10435995394292     1.36811998464764     4.10435995394292
Ne     1.36811998464764     4.10435995394292     4.10435995394292
O     2.73623996929528     0.00000000000000     0.00000000000000
O    -0.00000000000000     2.73623996929528     0.00000000000000
O     0.00000000000000     0.00000000000000     2.73623996929528
O     2.73623996929528     2.73623996929528     0.00000000000000
O     2.73623996929528     0.00000000000000     2.73623996929528
O    -0.00000000000000     2.73623996929528     2.73623996929528