CRYSTAL
# Primitive lattice vectors in Angstrom
PRIMVEC
 3.51099859053006 0.00000000000000 2.02707598136693
 1.17033286351002 3.31020121613362 2.02707598136693
 0.00000000000000 0.00000000000000 4.05415196273385
# Cartesian coordinates in Angstrom.
PRIMCOORD
 2 1
Ne     0.00000000000000     0.00000000000000     0.00000000000000
O     2.34066572702004     1.65510060806681     4.05415196273385