CRYSTAL
# Primitive lattice vectors in Angstrom
PRIMVEC
 3.29394435535367 0.00000000000000 1.90175966025909
 1.09798145178456 3.10556052069564 1.90175966025909
 0.00000000000000 0.00000000000000 3.80351932051818
# Cartesian coordinates in Angstrom.
PRIMCOORD
 3 1
Ne     0.00000000000000     0.00000000000000     0.00000000000000
O     1.09798145178456     0.77639013017391     1.90175966025909
O     3.29394435535367     2.32917039052173     5.70527898077727