CRYSTAL
# Primitive lattice vectors in Angstrom
PRIMVEC
 4.32281640765477 0.00000000000000 0.00000000000000
 -0.00000000000000 4.32281640765477 0.00000000000000
 0.00000000000000 0.00000000000000 4.32281640765477
# Cartesian coordinates in Angstrom.
PRIMCOORD
 4 1
Ne     0.00000000000000     0.00000000000000     0.00000000000000
O     2.16140820382738     0.00000000000000     0.00000000000000
O    -0.00000000000000     2.16140820382738     0.00000000000000
O     0.00000000000000     0.00000000000000     2.16140820382738