CRYSTAL
# Primitive lattice vectors in Angstrom
PRIMVEC
 4.57874498622577 0.00000000000000 0.00000000000000
 -0.00000000000000 4.57874498622577 0.00000000000000
 0.00000000000000 0.00000000000000 4.57874498622577
# Cartesian coordinates in Angstrom.
PRIMCOORD
 10 1
Ni     1.14468624655644     1.14468624655644     1.14468624655644
Ni     3.43405873966933     3.43405873966933     1.14468624655644
Ni     3.43405873966933     1.14468624655644     3.43405873966933
Ni     1.14468624655644     3.43405873966933     3.43405873966933
O     2.28937249311288     0.00000000000000     0.00000000000000
O    -0.00000000000000     2.28937249311288     0.00000000000000
O     0.00000000000000     0.00000000000000     2.28937249311288
O     2.28937249311288     2.28937249311288     0.00000000000000
O     2.28937249311288     0.00000000000000     2.28937249311288
O    -0.00000000000000     2.28937249311288     2.28937249311288