CRYSTAL
# Primitive lattice vectors in Angstrom
PRIMVEC
 4.95183566687790 0.00000000000000 0.00000000000000
 -0.00000000000000 4.95183566687790 0.00000000000000
 0.00000000000000 0.00000000000000 4.95183566687790
# Cartesian coordinates in Angstrom.
PRIMCOORD
 14 1
Ni     0.00000000000000     0.00000000000000     0.00000000000000
Ni     2.47591783343895     2.47591783343895     0.00000000000000
Ni     2.47591783343895     0.00000000000000     2.47591783343895
Ni    -0.00000000000000     2.47591783343895     2.47591783343895
O     2.47591783343895     0.00000000000000     0.00000000000000
O    -0.00000000000000     2.47591783343895     0.00000000000000
O     0.00000000000000     0.00000000000000     2.47591783343895
O     2.47591783343895     2.47591783343895     2.47591783343895
O     3.71387675015843     3.71387675015843     1.23795891671948
O     3.71387675015843     1.23795891671948     3.71387675015843
O     1.23795891671948     3.71387675015843     3.71387675015843
O     3.71387675015843     1.23795891671948     1.23795891671948
O     1.23795891671948     3.71387675015843     1.23795891671948
O     1.23795891671948     1.23795891671948     3.71387675015843