CRYSTAL
# Primitive lattice vectors in Angstrom
PRIMVEC
 3.07452157429094 0.00000000000000 1.77507585854619
 1.02484052476365 2.89868673878062 1.77507585854619
 0.00000000000000 0.00000000000000 3.55015171709238
# Cartesian coordinates in Angstrom.
PRIMCOORD
 3 1
Ni     1.02484052476365     0.72467168469516     1.77507585854619
Ni     3.07452157429095     2.17401505408547     5.32522757563857
O     0.00000000000000     0.00000000000000     0.00000000000000