CRYSTAL
# Primitive lattice vectors in Angstrom
PRIMVEC
 2.54726142270863 0.00000000000000 1.47066206809718
 0.84908714090288 2.40158110060289 1.47066206809718
 0.00000000000000 0.00000000000000 2.94132413619435
# Cartesian coordinates in Angstrom.
PRIMCOORD
 2 1
Ni     0.00000000000000     0.00000000000000     0.00000000000000
O     1.69817428180575     1.20079055030144     2.94132413619435