CRYSTAL
# Primitive lattice vectors in Angstrom
PRIMVEC
 3.66445025642928 0.00000000000000 0.00000000000000
 -0.00000000000000 3.66445025642928 0.00000000000000
 0.00000000000000 0.00000000000000 3.66445025642928
# Cartesian coordinates in Angstrom.
PRIMCOORD
 4 1
Ni     0.00000000000000     0.00000000000000     0.00000000000000
O     1.83222512821464     0.00000000000000     0.00000000000000
O    -0.00000000000000     1.83222512821464     0.00000000000000
O     0.00000000000000     0.00000000000000     1.83222512821464