CRYSTAL
# Primitive lattice vectors in Angstrom
PRIMVEC
 2.88715056133858 0.00000000000000 1.66689715377981
 0.96238352044619 2.72203165363874 1.66689715377981
 0.00000000000000 0.00000000000000 3.33379430755962
# Cartesian coordinates in Angstrom.
PRIMCOORD
 3 1
Ni     0.00000000000000     0.00000000000000     0.00000000000000
O     0.96238352044619     0.68050791340969     1.66689715377981
O     2.88715056133858     2.04152374022906     5.00069146133943