CRYSTAL
# Primitive lattice vectors in Angstrom
PRIMVEC
 5.28066285875217 0.00000000000000 0.00000000000000
 -0.00000000000000 5.28066285875217 0.00000000000000
 0.00000000000000 0.00000000000000 5.28066285875217
# Cartesian coordinates in Angstrom.
PRIMCOORD
 10 1
Np     1.32016571468804     1.32016571468804     1.32016571468804
Np     3.96049714406413     3.96049714406413     1.32016571468804
Np     3.96049714406413     1.32016571468804     3.96049714406413
Np     1.32016571468804     3.96049714406413     3.96049714406413
O     2.64033142937608     0.00000000000000     0.00000000000000
O    -0.00000000000000     2.64033142937608     0.00000000000000
O     0.00000000000000     0.00000000000000     2.64033142937608
O     2.64033142937608     2.64033142937608     0.00000000000000
O     2.64033142937608     0.00000000000000     2.64033142937608
O    -0.00000000000000     2.64033142937608     2.64033142937608