CRYSTAL
# Primitive lattice vectors in Angstrom
PRIMVEC
 3.51419077169328 0.00000000000000 2.02891898802081
 1.17139692389776 3.31321083339667 2.02891898802081
 0.00000000000000 0.00000000000000 4.05783797604162
# Cartesian coordinates in Angstrom.
PRIMCOORD
 3 1
Np     1.17139692389776     0.82830270834917     2.02891898802081
Np     3.51419077169328     2.48490812504750     6.08675696406243
O     0.00000000000000     0.00000000000000     0.00000000000000