CRYSTAL
# Primitive lattice vectors in Angstrom
PRIMVEC
 2.92812050697823 0.00000000000000 1.69055116292355
 0.97604016899275 2.76065848882094 1.69055116292355
 0.00000000000000 0.00000000000000 3.38110232584709
# Cartesian coordinates in Angstrom.
PRIMCOORD
 2 1
Np     0.00000000000000     0.00000000000000     0.00000000000000
O     1.95208033798549     1.38032924441047     3.38110232584710