CRYSTAL
# Primitive lattice vectors in Angstrom
PRIMVEC
 5.30869997112529 0.00000000000000 0.00000000000000
 -0.00000000000000 5.30869997112529 0.00000000000000
 0.00000000000000 0.00000000000000 5.30869997112529
# Cartesian coordinates in Angstrom.
PRIMCOORD
 14 1
Np     0.00000000000000     0.00000000000000     0.00000000000000
Np     2.65434998556265     2.65434998556265     0.00000000000000
Np     2.65434998556265     0.00000000000000     2.65434998556265
Np    -0.00000000000000     2.65434998556265     2.65434998556265
O     2.65434998556265     0.00000000000000     0.00000000000000
O    -0.00000000000000     2.65434998556265     0.00000000000000
O     0.00000000000000     0.00000000000000     2.65434998556265
O     2.65434998556265     2.65434998556265     2.65434998556265
O     3.98152497834397     3.98152497834397     1.32717499278132
O     3.98152497834397     1.32717499278132     3.98152497834397
O     1.32717499278132     3.98152497834397     3.98152497834397
O     3.98152497834397     1.32717499278132     1.32717499278132
O     1.32717499278132     3.98152497834397     1.32717499278132
O     1.32717499278132     1.32717499278132     3.98152497834397