CRYSTAL
# Primitive lattice vectors in Angstrom
PRIMVEC
 4.12699503666212 0.00000000000000 0.00000000000000
 -0.00000000000000 4.12699503666212 0.00000000000000
 0.00000000000000 0.00000000000000 4.12699503666212
# Cartesian coordinates in Angstrom.
PRIMCOORD
 4 1
Np     0.00000000000000     0.00000000000000     0.00000000000000
O     2.06349751833106     0.00000000000000     0.00000000000000
O    -0.00000000000000     2.06349751833106     0.00000000000000
O     0.00000000000000     0.00000000000000     2.06349751833106