CRYSTAL
# Primitive lattice vectors in Angstrom
PRIMVEC
 3.27001242501101 0.00000000000000 1.88794255383353
 1.09000414167034 3.08299728038607 1.88794255383353
 0.00000000000000 0.00000000000000 3.77588510766706
# Cartesian coordinates in Angstrom.
PRIMCOORD
 3 1
Np     0.00000000000000     0.00000000000000     0.00000000000000
O     1.09000414167034     0.77074932009652     1.88794255383353
O     3.27001242501101     2.31224796028955     5.66382766150059