CRYSTAL
# Primitive lattice vectors in Angstrom
PRIMVEC
 4.57479747035045 0.00000000000000 0.00000000000000
 -0.00000000000000 4.57479747035045 0.00000000000000
 0.00000000000000 0.00000000000000 4.57479747035045
# Cartesian coordinates in Angstrom.
PRIMCOORD
 10 1
O     1.14369936758761     1.14369936758761     1.14369936758761
O     3.43109810276284     3.43109810276284     1.14369936758761
O     3.43109810276284     1.14369936758761     3.43109810276284
O     1.14369936758761     3.43109810276284     3.43109810276284
O     2.28739873517523     0.00000000000000     0.00000000000000
O    -0.00000000000000     2.28739873517523     0.00000000000000
O     0.00000000000000     0.00000000000000     2.28739873517523
O     2.28739873517523     2.28739873517523     0.00000000000000
O     2.28739873517523     0.00000000000000     2.28739873517523
O    -0.00000000000000     2.28739873517523     2.28739873517523