CRYSTAL
# Primitive lattice vectors in Angstrom
PRIMVEC
 2.92027762871241 0.00000000000000 1.68602307504555
 0.97342587623747 2.75326415227989 1.68602307504555
 0.00000000000000 0.00000000000000 3.37204615009111
# Cartesian coordinates in Angstrom.
PRIMCOORD
 3 1
O     0.97342587623747     0.68831603806997     1.68602307504555
O     2.92027762871241     2.06494811420992     5.05806922513666
O     0.00000000000000     0.00000000000000     0.00000000000000