CRYSTAL
# Primitive lattice vectors in Angstrom
PRIMVEC
 4.87509364310765 0.00000000000000 0.00000000000000
 -0.00000000000000 4.87509364310765 0.00000000000000
 0.00000000000000 0.00000000000000 4.87509364310765
# Cartesian coordinates in Angstrom.
PRIMCOORD
 14 1
O     0.00000000000000     0.00000000000000     0.00000000000000
O     2.43754682155382     2.43754682155382     0.00000000000000
O     2.43754682155382     0.00000000000000     2.43754682155382
O    -0.00000000000000     2.43754682155382     2.43754682155382
O     2.43754682155382     0.00000000000000     0.00000000000000
O    -0.00000000000000     2.43754682155382     0.00000000000000
O     0.00000000000000     0.00000000000000     2.43754682155382
O     2.43754682155382     2.43754682155382     2.43754682155382
O     3.65632023233073     3.65632023233073     1.21877341077691
O     3.65632023233073     1.21877341077691     3.65632023233073
O     1.21877341077691     3.65632023233073     3.65632023233073
O     3.65632023233073     1.21877341077691     1.21877341077691
O     1.21877341077691     3.65632023233073     1.21877341077691
O     1.21877341077691     1.21877341077691     3.65632023233073