CRYSTAL
# Primitive lattice vectors in Angstrom
PRIMVEC
 2.44469274772473 0.00000000000000 1.41144401598480
 0.81489758257491 2.30487842644497 1.41144401598480
 0.00000000000000 0.00000000000000 2.82288803196959
# Cartesian coordinates in Angstrom.
PRIMCOORD
 2 1
O     0.00000000000000     0.00000000000000     0.00000000000000
O     1.62979516514982     1.15243921322249     2.82288803196959