CRYSTAL
# Primitive lattice vectors in Angstrom
PRIMVEC
 3.55137354980858 0.00000000000000 0.00000000000000
 -0.00000000000000 3.55137354980858 0.00000000000000
 0.00000000000000 0.00000000000000 3.55137354980858
# Cartesian coordinates in Angstrom.
PRIMCOORD
 4 1
O     0.00000000000000     0.00000000000000     0.00000000000000
O     1.77568677490429     0.00000000000000     0.00000000000000
O    -0.00000000000000     1.77568677490429     0.00000000000000
O     0.00000000000000     0.00000000000000     1.77568677490429