CRYSTAL
# Primitive lattice vectors in Angstrom
PRIMVEC
 2.92027686612499 0.00000000000000 1.68602263476550
 0.97342562204166 2.75326343330558 1.68602263476550
 0.00000000000000 0.00000000000000 3.37204526953100
# Cartesian coordinates in Angstrom.
PRIMCOORD
 3 1
O     0.00000000000000     0.00000000000000     0.00000000000000
O     0.97342562204166     0.68831585832639     1.68602263476550
O     2.92027686612499     2.06494757497918     5.05806790429651