CRYSTAL
# Primitive lattice vectors in Angstrom
PRIMVEC
 3.75893558012366 0.00000000000000 0.00000000000000
 -0.00000000000000 3.75893558012366 0.00000000000000
 0.00000000000000 0.00000000000000 3.75893558012366
# Cartesian coordinates in Angstrom.
PRIMCOORD
 4 1
Os     0.00000000000000     0.00000000000000     0.00000000000000
O     1.87946779006183     0.00000000000000     0.00000000000000
O    -0.00000000000000     1.87946779006183     0.00000000000000
O     0.00000000000000     0.00000000000000     1.87946779006183