CRYSTAL
# Primitive lattice vectors in Angstrom
PRIMVEC
 2.74612211623660 0.00000000000000 1.58547434303679
 0.91537403874553 2.58906876047634 1.58547434303679
 0.00000000000000 0.00000000000000 3.17094868607358
# Cartesian coordinates in Angstrom.
PRIMCOORD
 2 1
Os     0.00000000000000     0.00000000000000     0.00000000000000
O     1.83074807749107     1.29453438023817     3.17094868607358