CRYSTAL
# Primitive lattice vectors in Angstrom
PRIMVEC
 3.31268422887773 0.00000000000000 1.91257913128278
 1.10422807629258 3.12322864289222 1.91257913128278
 0.00000000000000 0.00000000000000 3.82515826256557
# Cartesian coordinates in Angstrom.
PRIMCOORD
 3 1
Os     1.10422807629258     0.78080716072306     1.91257913128278
Os     3.31268422887773     2.34242148216917     5.73773739384835
O     0.00000000000000     0.00000000000000     0.00000000000000