CRYSTAL
# Primitive lattice vectors in Angstrom
PRIMVEC
 4.78301338944502 0.00000000000000 0.00000000000000
 -0.00000000000000 4.78301338944502 0.00000000000000
 0.00000000000000 0.00000000000000 4.78301338944502
# Cartesian coordinates in Angstrom.
PRIMCOORD
 10 1
Os     1.19575334736125     1.19575334736125     1.19575334736125
Os     3.58726004208376     3.58726004208376     1.19575334736125
Os     3.58726004208376     1.19575334736125     3.58726004208376
Os     1.19575334736125     3.58726004208376     3.58726004208376
O     2.39150669472251     0.00000000000000     0.00000000000000
O    -0.00000000000000     2.39150669472251     0.00000000000000
O     0.00000000000000     0.00000000000000     2.39150669472251
O     2.39150669472251     2.39150669472251     0.00000000000000
O     2.39150669472251     0.00000000000000     2.39150669472251
O    -0.00000000000000     2.39150669472251     2.39150669472251