CRYSTAL
# Primitive lattice vectors in Angstrom
PRIMVEC
 2.97972888554861 0.00000000000000 1.72034727418360
 0.99324296184954 2.80931533475848 1.72034727418360
 0.00000000000000 0.00000000000000 3.44069454836719
# Cartesian coordinates in Angstrom.
PRIMCOORD
 3 1
Os     0.00000000000000     0.00000000000000     0.00000000000000
O     0.99324296184954     0.70232883368962     1.72034727418360
O     2.97972888554861     2.10698650106886     5.16104182255079