CRYSTAL
# Primitive lattice vectors in Angstrom
PRIMVEC
 5.01862474515061 0.00000000000000 0.00000000000000
 -0.00000000000000 5.01862474515061 0.00000000000000
 0.00000000000000 0.00000000000000 5.01862474515061
# Cartesian coordinates in Angstrom.
PRIMCOORD
 14 1
Os     0.00000000000000     0.00000000000000     0.00000000000000
Os     2.50931237257531     2.50931237257531     0.00000000000000
Os     2.50931237257531     0.00000000000000     2.50931237257531
Os    -0.00000000000000     2.50931237257531     2.50931237257531
O     2.50931237257531     0.00000000000000     0.00000000000000
O    -0.00000000000000     2.50931237257531     0.00000000000000
O     0.00000000000000     0.00000000000000     2.50931237257531
O     2.50931237257531     2.50931237257531     2.50931237257531
O     3.76396855886296     3.76396855886296     1.25465618628765
O     3.76396855886296     1.25465618628765     3.76396855886296
O     1.25465618628765     3.76396855886296     3.76396855886296
O     3.76396855886296     1.25465618628765     1.25465618628765
O     1.25465618628765     3.76396855886296     1.25465618628765
O     1.25465618628765     1.25465618628765     3.76396855886296