CRYSTAL
# Primitive lattice vectors in Angstrom
PRIMVEC
 5.07283804329828 0.00000000000000 0.00000000000000
 -0.00000000000000 5.07283804329828 0.00000000000000
 0.00000000000000 0.00000000000000 5.07283804329828
# Cartesian coordinates in Angstrom.
PRIMCOORD
 14 1
P     0.00000000000000     0.00000000000000     0.00000000000000
P     2.53641902164914     2.53641902164914     0.00000000000000
P     2.53641902164914     0.00000000000000     2.53641902164914
P    -0.00000000000000     2.53641902164914     2.53641902164914
O     2.53641902164914     0.00000000000000     0.00000000000000
O    -0.00000000000000     2.53641902164914     0.00000000000000
O     0.00000000000000     0.00000000000000     2.53641902164914
O     2.53641902164914     2.53641902164914     2.53641902164914
O     3.80462853247371     3.80462853247371     1.26820951082457
O     3.80462853247371     1.26820951082457     3.80462853247371
O     1.26820951082457     3.80462853247371     3.80462853247371
O     3.80462853247371     1.26820951082457     1.26820951082457
O     1.26820951082457     3.80462853247371     1.26820951082457
O     1.26820951082457     1.26820951082457     3.80462853247371