CRYSTAL
# Primitive lattice vectors in Angstrom
PRIMVEC
 4.83263089230208 0.00000000000000 0.00000000000000
 -0.00000000000000 4.83263089230208 0.00000000000000
 0.00000000000000 0.00000000000000 4.83263089230208
# Cartesian coordinates in Angstrom.
PRIMCOORD
 10 1
P     1.20815772307552     1.20815772307552     1.20815772307552
P     3.62447316922656     3.62447316922656     1.20815772307552
P     3.62447316922656     1.20815772307552     3.62447316922656
P     1.20815772307552     3.62447316922656     3.62447316922656
O     2.41631544615104     0.00000000000000     0.00000000000000
O    -0.00000000000000     2.41631544615104     0.00000000000000
O     0.00000000000000     0.00000000000000     2.41631544615104
O     2.41631544615104     2.41631544615104     0.00000000000000
O     2.41631544615104     0.00000000000000     2.41631544615104
O    -0.00000000000000     2.41631544615104     2.41631544615104