CRYSTAL
# Primitive lattice vectors in Angstrom
PRIMVEC
 3.32485934127761 0.00000000000000 1.91960843570427
 1.10828644709254 3.13470744894512 1.91960843570427
 0.00000000000000 0.00000000000000 3.83921687140854
# Cartesian coordinates in Angstrom.
PRIMCOORD
 3 1
P     1.10828644709254     0.78367686223628     1.91960843570427
P     3.32485934127761     2.35103058670884     5.75882530711282
O     0.00000000000000     0.00000000000000     0.00000000000000