CRYSTAL
# Primitive lattice vectors in Angstrom
PRIMVEC
 2.81566541870842 0.00000000000000 1.62562518743923
 0.93855513956947 2.65463481482825 1.62562518743923
 0.00000000000000 0.00000000000000 3.25125037487845
# Cartesian coordinates in Angstrom.
PRIMCOORD
 2 1
P     0.00000000000000     0.00000000000000     0.00000000000000
O     1.87711027913895     1.32731740741412     3.25125037487845