CRYSTAL
# Primitive lattice vectors in Angstrom
PRIMVEC
 2.92344602882930 0.00000000000000 1.68785235170594
 0.97448200960977 2.75625134855744 1.68785235170594
 0.00000000000000 0.00000000000000 3.37570470341187
# Cartesian coordinates in Angstrom.
PRIMCOORD
 3 1
P     0.00000000000000     0.00000000000000     0.00000000000000
O     0.97448200960977     0.68906283713936     1.68785235170594
O     2.92344602882930     2.06718851141808     5.06355705511781