CRYSTAL
# Primitive lattice vectors in Angstrom
PRIMVEC
 3.33224175999187 0.00000000000000 0.00000000000000
 -0.00000000000000 3.33224175999187 0.00000000000000
 0.00000000000000 0.00000000000000 3.33224175999187
# Cartesian coordinates in Angstrom.
PRIMCOORD
 4 1
P     0.00000000000000     0.00000000000000     0.00000000000000
O     1.66612087999593     0.00000000000000     0.00000000000000
O    -0.00000000000000     1.66612087999593     0.00000000000000
O     0.00000000000000     0.00000000000000     1.66612087999593