CRYSTAL
# Primitive lattice vectors in Angstrom
PRIMVEC
 4.26670492455469 0.00000000000000 0.00000000000000
 -0.00000000000000 4.26670492455469 0.00000000000000
 0.00000000000000 0.00000000000000 4.26670492455469
# Cartesian coordinates in Angstrom.
PRIMCOORD
 4 1
Pa     0.00000000000000     0.00000000000000     0.00000000000000
O     2.13335246227734     0.00000000000000     0.00000000000000
O    -0.00000000000000     2.13335246227734     0.00000000000000
O     0.00000000000000     0.00000000000000     2.13335246227734