CRYSTAL
# Primitive lattice vectors in Angstrom
PRIMVEC
 5.40172554340188 0.00000000000000 0.00000000000000
 -0.00000000000000 5.40172554340188 0.00000000000000
 0.00000000000000 0.00000000000000 5.40172554340188
# Cartesian coordinates in Angstrom.
PRIMCOORD
 10 1
Pa     1.35043138585047     1.35043138585047     1.35043138585047
Pa     4.05129415755141     4.05129415755141     1.35043138585047
Pa     4.05129415755141     1.35043138585047     4.05129415755141
Pa     1.35043138585047     4.05129415755141     4.05129415755141
O     2.70086277170094     0.00000000000000     0.00000000000000
O    -0.00000000000000     2.70086277170094     0.00000000000000
O     0.00000000000000     0.00000000000000     2.70086277170094
O     2.70086277170094     2.70086277170094     0.00000000000000
O     2.70086277170094     0.00000000000000     2.70086277170094
O    -0.00000000000000     2.70086277170094     2.70086277170094