CRYSTAL
# Primitive lattice vectors in Angstrom
PRIMVEC
 5.42503190542920 0.00000000000000 0.00000000000000
 -0.00000000000000 5.42503190542920 0.00000000000000
 0.00000000000000 0.00000000000000 5.42503190542920
# Cartesian coordinates in Angstrom.
PRIMCOORD
 14 1
Pa     0.00000000000000     0.00000000000000     0.00000000000000
Pa     2.71251595271460     2.71251595271460     0.00000000000000
Pa     2.71251595271460     0.00000000000000     2.71251595271460
Pa    -0.00000000000000     2.71251595271460     2.71251595271460
O     2.71251595271460     0.00000000000000     0.00000000000000
O    -0.00000000000000     2.71251595271460     0.00000000000000
O     0.00000000000000     0.00000000000000     2.71251595271460
O     2.71251595271460     2.71251595271460     2.71251595271460
O     4.06877392907190     4.06877392907190     1.35625797635730
O     4.06877392907190     1.35625797635730     4.06877392907190
O     1.35625797635730     4.06877392907190     4.06877392907190
O     4.06877392907190     1.35625797635730     1.35625797635730
O     1.35625797635730     4.06877392907190     1.35625797635730
O     1.35625797635730     1.35625797635730     4.06877392907190