CRYSTAL
# Primitive lattice vectors in Angstrom
PRIMVEC
 3.72546854477766 0.00000000000000 2.15090026718486
 1.24182284825922 3.51240542814595 2.15090026718486
 0.00000000000000 0.00000000000000 4.30180053436973
# Cartesian coordinates in Angstrom.
PRIMCOORD
 3 1
Pa     1.24182284825922     0.87810135703649     2.15090026718486
Pa     3.72546854477766     2.63430407110946     6.45270080155459
O     0.00000000000000     0.00000000000000     0.00000000000000