CRYSTAL
# Primitive lattice vectors in Angstrom
PRIMVEC
 3.34235483856384 0.00000000000000 1.92970946577208
 1.11411827952128 3.15120236197355 1.92970946577208
 0.00000000000000 0.00000000000000 3.85941893154417
# Cartesian coordinates in Angstrom.
PRIMCOORD
 3 1
Pa     0.00000000000000     0.00000000000000     0.00000000000000
O     1.11411827952128     0.78780059049339     1.92970946577208
O     3.34235483856384     2.36340177148016     5.78912839731625