CRYSTAL
# Primitive lattice vectors in Angstrom
PRIMVEC
 3.02343056589582 0.00000000000000 1.74557845109609
 1.00781018863194 2.85051767412215 1.74557845109609
 0.00000000000000 0.00000000000000 3.49115690219219
# Cartesian coordinates in Angstrom.
PRIMCOORD
 2 1
Pa     0.00000000000000     0.00000000000000     0.00000000000000
O     2.01562037726388     1.42525883706108     3.49115690219219