CRYSTAL
# Primitive lattice vectors in Angstrom
PRIMVEC
 5.60975401001734 0.00000000000000 0.00000000000000
 -0.00000000000000 5.60975401001734 0.00000000000000
 0.00000000000000 0.00000000000000 5.60975401001734
# Cartesian coordinates in Angstrom.
PRIMCOORD
 14 1
Pb     0.00000000000000     0.00000000000000     0.00000000000000
Pb     2.80487700500867     2.80487700500867     0.00000000000000
Pb     2.80487700500867     0.00000000000000     2.80487700500867
Pb    -0.00000000000000     2.80487700500867     2.80487700500867
O     2.80487700500867     0.00000000000000     0.00000000000000
O    -0.00000000000000     2.80487700500867     0.00000000000000
O     0.00000000000000     0.00000000000000     2.80487700500867
O     2.80487700500867     2.80487700500867     2.80487700500867
O     4.20731550751301     4.20731550751301     1.40243850250434
O     4.20731550751301     1.40243850250434     4.20731550751301
O     1.40243850250434     4.20731550751301     4.20731550751301
O     4.20731550751301     1.40243850250434     1.40243850250434
O     1.40243850250434     4.20731550751301     1.40243850250434
O     1.40243850250434     1.40243850250434     4.20731550751301