CRYSTAL
# Primitive lattice vectors in Angstrom
PRIMVEC
 5.56872158718208 0.00000000000000 0.00000000000000
 -0.00000000000000 5.56872158718208 0.00000000000000
 0.00000000000000 0.00000000000000 5.56872158718208
# Cartesian coordinates in Angstrom.
PRIMCOORD
 10 1
Pb     1.39218039679552     1.39218039679552     1.39218039679552
Pb     4.17654119038656     4.17654119038656     1.39218039679552
Pb     4.17654119038656     1.39218039679552     4.17654119038656
Pb     1.39218039679552     4.17654119038656     4.17654119038656
O     2.78436079359104     0.00000000000000     0.00000000000000
O    -0.00000000000000     2.78436079359104     0.00000000000000
O     0.00000000000000     0.00000000000000     2.78436079359104
O     2.78436079359104     2.78436079359104     0.00000000000000
O     2.78436079359104     0.00000000000000     2.78436079359104
O    -0.00000000000000     2.78436079359104     2.78436079359104