CRYSTAL
# Primitive lattice vectors in Angstrom
PRIMVEC
 3.31349064477086 0.00000000000000 1.91304471571577
 1.10449688159029 3.12398893908755 1.91304471571577
 0.00000000000000 0.00000000000000 3.82608943143153
# Cartesian coordinates in Angstrom.
PRIMCOORD
 3 1
Pb     0.00000000000000     0.00000000000000     0.00000000000000
O     1.10449688159029     0.78099723477189     1.91304471571577
O     3.31349064477086     2.34299170431566     5.73913414714730