CRYSTAL
# Primitive lattice vectors in Angstrom
PRIMVEC
 3.22495972347258 0.00000000000000 1.86193136447260
 1.07498657449086 3.04052118602794 1.86193136447260
 0.00000000000000 0.00000000000000 3.72386272894519
# Cartesian coordinates in Angstrom.
PRIMCOORD
 2 1
Pb     0.00000000000000     0.00000000000000     0.00000000000000
O     2.14997314898172     1.52026059301397     3.72386272894519