CRYSTAL
# Primitive lattice vectors in Angstrom
PRIMVEC
 4.01244647104628 0.00000000000000 2.31658705016753
 1.33748215701543 3.78297081176647 2.31658705016753
 0.00000000000000 0.00000000000000 4.63317410033507
# Cartesian coordinates in Angstrom.
PRIMCOORD
 3 1
Pb     1.33748215701543     0.94574270294162     2.31658705016753
Pb     4.01244647104628     2.83722810882486     6.94976115050260
O     0.00000000000000     0.00000000000000     0.00000000000000