CRYSTAL
# Primitive lattice vectors in Angstrom
PRIMVEC
 3.88364036794919 0.00000000000000 0.00000000000000
 -0.00000000000000 3.88364036794919 0.00000000000000
 0.00000000000000 0.00000000000000 3.88364036794919
# Cartesian coordinates in Angstrom.
PRIMCOORD
 4 1
Pd     0.00000000000000     0.00000000000000     0.00000000000000
O     1.94182018397460     0.00000000000000     0.00000000000000
O    -0.00000000000000     1.94182018397460     0.00000000000000
O     0.00000000000000     0.00000000000000     1.94182018397460