CRYSTAL
# Primitive lattice vectors in Angstrom
PRIMVEC
 2.77685269964465 0.00000000000000 1.60321665363978
 0.92561756654822 2.61804183236654 1.60321665363978
 0.00000000000000 0.00000000000000 3.20643330727956
# Cartesian coordinates in Angstrom.
PRIMCOORD
 2 1
Pd     0.00000000000000     0.00000000000000     0.00000000000000
O     1.85123513309644     1.30902091618327     3.20643330727956