CRYSTAL
# Primitive lattice vectors in Angstrom
PRIMVEC
 5.16641178345541 0.00000000000000 0.00000000000000
 -0.00000000000000 5.16641178345541 0.00000000000000
 0.00000000000000 0.00000000000000 5.16641178345541
# Cartesian coordinates in Angstrom.
PRIMCOORD
 14 1
Pd     0.00000000000000     0.00000000000000     0.00000000000000
Pd     2.58320589172770     2.58320589172770     0.00000000000000
Pd     2.58320589172770     0.00000000000000     2.58320589172770
Pd    -0.00000000000000     2.58320589172770     2.58320589172770
O     2.58320589172770     0.00000000000000     0.00000000000000
O    -0.00000000000000     2.58320589172770     0.00000000000000
O     0.00000000000000     0.00000000000000     2.58320589172770
O     2.58320589172770     2.58320589172770     2.58320589172771
O     3.87480883759156     3.87480883759156     1.29160294586385
O     3.87480883759156     1.29160294586385     3.87480883759156
O     1.29160294586385     3.87480883759156     3.87480883759156
O     3.87480883759156     1.29160294586385     1.29160294586385
O     1.29160294586385     3.87480883759156     1.29160294586385
O     1.29160294586385     1.29160294586385     3.87480883759156