CRYSTAL
# Primitive lattice vectors in Angstrom
PRIMVEC
 3.38461535186071 0.00000000000000 1.95410858450012
 1.12820511728691 3.19104595601174 1.95410858450012
 0.00000000000000 0.00000000000000 3.90821716900025
# Cartesian coordinates in Angstrom.
PRIMCOORD
 3 1
Pd     1.12820511728690     0.79776148900293     1.95410858450012
Pd     3.38461535186071     2.39328446700880     5.86232575350037
O     0.00000000000000     0.00000000000000     0.00000000000000