CRYSTAL
# Primitive lattice vectors in Angstrom
PRIMVEC
 3.06654054457025 0.00000000000000 1.77046800888853
 1.02218018152342 2.89116215179881 1.77046800888853
 0.00000000000000 0.00000000000000 3.54093601777707
# Cartesian coordinates in Angstrom.
PRIMCOORD
 3 1
Pd     0.00000000000000     0.00000000000000     0.00000000000000
O     1.02218018152342     0.72279053794970     1.77046800888853
O     3.06654054457025     2.16837161384911     5.31140402666560