CRYSTAL
# Primitive lattice vectors in Angstrom
PRIMVEC
 4.90533686980361 0.00000000000000 0.00000000000000
 -0.00000000000000 4.90533686980361 0.00000000000000
 0.00000000000000 0.00000000000000 4.90533686980361
# Cartesian coordinates in Angstrom.
PRIMCOORD
 10 1
Pd     1.22633421745090     1.22633421745090     1.22633421745090
Pd     3.67900265235271     3.67900265235271     1.22633421745090
Pd     3.67900265235271     1.22633421745090     3.67900265235271
Pd     1.22633421745090     3.67900265235271     3.67900265235271
O     2.45266843490181     0.00000000000000     0.00000000000000
O    -0.00000000000000     2.45266843490181     0.00000000000000
O     0.00000000000000     0.00000000000000     2.45266843490181
O     2.45266843490181     2.45266843490181     0.00000000000000
O     2.45266843490181     0.00000000000000     2.45266843490181
O    -0.00000000000000     2.45266843490181     2.45266843490181