CRYSTAL
# Primitive lattice vectors in Angstrom
PRIMVEC
 2.98725549764186 0.00000000000000 1.72469276570172
 0.99575183254729 2.81641149269247 1.72469276570172
 0.00000000000000 0.00000000000000 3.44938553140344
# Cartesian coordinates in Angstrom.
PRIMCOORD
 2 1
Pm     0.00000000000000     0.00000000000000     0.00000000000000
O     1.99150366509457     1.40820574634624     3.44938553140344