CRYSTAL
# Primitive lattice vectors in Angstrom
PRIMVEC
 5.37397527300419 0.00000000000000 0.00000000000000
 -0.00000000000000 5.37397527300419 0.00000000000000
 0.00000000000000 0.00000000000000 5.37397527300419
# Cartesian coordinates in Angstrom.
PRIMCOORD
 10 1
Pm     1.34349381825105     1.34349381825105     1.34349381825105
Pm     4.03048145475314     4.03048145475314     1.34349381825105
Pm     4.03048145475314     1.34349381825105     4.03048145475314
Pm     1.34349381825105     4.03048145475314     4.03048145475314
O     2.68698763650209     0.00000000000000     0.00000000000000
O    -0.00000000000000     2.68698763650209     0.00000000000000
O     0.00000000000000     0.00000000000000     2.68698763650209
O     2.68698763650209     2.68698763650209     0.00000000000000
O     2.68698763650209     0.00000000000000     2.68698763650209
O    -0.00000000000000     2.68698763650209     2.68698763650209