CRYSTAL
# Primitive lattice vectors in Angstrom
PRIMVEC
 5.40945902633375 0.00000000000000 0.00000000000000
 -0.00000000000000 5.40945902633375 0.00000000000000
 0.00000000000000 0.00000000000000 5.40945902633375
# Cartesian coordinates in Angstrom.
PRIMCOORD
 14 1
Pm     0.00000000000000     0.00000000000000     0.00000000000000
Pm     2.70472951316688     2.70472951316688     0.00000000000000
Pm     2.70472951316688     0.00000000000000     2.70472951316688
Pm    -0.00000000000000     2.70472951316688     2.70472951316688
O     2.70472951316688     0.00000000000000     0.00000000000000
O    -0.00000000000000     2.70472951316688     0.00000000000000
O     0.00000000000000     0.00000000000000     2.70472951316688
O     2.70472951316688     2.70472951316688     2.70472951316688
O     4.05709426975032     4.05709426975032     1.35236475658344
O     4.05709426975032     1.35236475658344     4.05709426975032
O     1.35236475658344     4.05709426975032     4.05709426975032
O     4.05709426975032     1.35236475658344     1.35236475658344
O     1.35236475658344     4.05709426975032     1.35236475658344
O     1.35236475658344     1.35236475658344     4.05709426975032