CRYSTAL
# Primitive lattice vectors in Angstrom
PRIMVEC
 3.28345005932790 0.00000000000000 1.89570077562366
 1.09448335310930 3.09566640351751 1.89570077562366
 0.00000000000000 0.00000000000000 3.79140155124732
# Cartesian coordinates in Angstrom.
PRIMCOORD
 3 1
Pm     0.00000000000000     0.00000000000000     0.00000000000000
O     1.09448335310930     0.77391660087938     1.89570077562366
O     3.28345005932790     2.32174980263813     5.68710232687098