CRYSTAL
# Primitive lattice vectors in Angstrom
PRIMVEC
 4.15472606533611 0.00000000000000 0.00000000000000
 -0.00000000000000 4.15472606533611 0.00000000000000
 0.00000000000000 0.00000000000000 4.15472606533611
# Cartesian coordinates in Angstrom.
PRIMCOORD
 4 1
Pm     0.00000000000000     0.00000000000000     0.00000000000000
O     2.07736303266805     0.00000000000000     0.00000000000000
O    -0.00000000000000     2.07736303266805     0.00000000000000
O     0.00000000000000     0.00000000000000     2.07736303266805