CRYSTAL
# Primitive lattice vectors in Angstrom
PRIMVEC
 3.57711590842057 0.00000000000000 2.06524883264911
 1.19237196947352 3.37253722124595 2.06524883264911
 0.00000000000000 0.00000000000000 4.13049766529822
# Cartesian coordinates in Angstrom.
PRIMCOORD
 3 1
Pm     1.19237196947352     0.84313430531149     2.06524883264911
Pm     3.57711590842057     2.52940291593446     6.19574649794733
O     0.00000000000000     0.00000000000000     0.00000000000000