CRYSTAL
# Primitive lattice vectors in Angstrom
PRIMVEC
 5.53216380859012 0.00000000000000 0.00000000000000
 -0.00000000000000 5.53216380859012 0.00000000000000
 0.00000000000000 0.00000000000000 5.53216380859012
# Cartesian coordinates in Angstrom.
PRIMCOORD
 10 1
Po     1.38304095214753     1.38304095214753     1.38304095214753
Po     4.14912285644259     4.14912285644259     1.38304095214753
Po     4.14912285644259     1.38304095214753     4.14912285644259
Po     1.38304095214753     4.14912285644259     4.14912285644259
O     2.76608190429506     0.00000000000000     0.00000000000000
O    -0.00000000000000     2.76608190429506     0.00000000000000
O     0.00000000000000     0.00000000000000     2.76608190429506
O     2.76608190429506     2.76608190429506     0.00000000000000
O     2.76608190429506     0.00000000000000     2.76608190429506
O    -0.00000000000000     2.76608190429506     2.76608190429506