CRYSTAL
# Primitive lattice vectors in Angstrom
PRIMVEC
 3.24909962367866 0.00000000000000 1.87586854235479
 1.08303320789289 3.06328050220512 1.87586854235479
 0.00000000000000 0.00000000000000 3.75173708470957
# Cartesian coordinates in Angstrom.
PRIMCOORD
 2 1
Po     0.00000000000000     0.00000000000000     0.00000000000000
O     2.16606641578577     1.53164025110256     3.75173708470957