CRYSTAL
# Primitive lattice vectors in Angstrom
PRIMVEC
 4.13922758532807 0.00000000000000 0.00000000000000
 -0.00000000000000 4.13922758532807 0.00000000000000
 0.00000000000000 0.00000000000000 4.13922758532807
# Cartesian coordinates in Angstrom.
PRIMCOORD
 4 1
Po     0.00000000000000     0.00000000000000     0.00000000000000
O     2.06961379266404     0.00000000000000     0.00000000000000
O    -0.00000000000000     2.06961379266404     0.00000000000000
O     0.00000000000000     0.00000000000000     2.06961379266404