CRYSTAL
# Primitive lattice vectors in Angstrom
PRIMVEC
 4.01304010179065 0.00000000000000 2.31692978303760
 1.33768003393022 3.78353049219963 2.31692978303760
 0.00000000000000 0.00000000000000 4.63385956607519
# Cartesian coordinates in Angstrom.
PRIMCOORD
 3 1
Po     1.33768003393022     0.94588262304991     2.31692978303760
Po     4.01304010179065     2.83764786914972     6.95078934911279
O     0.00000000000000     0.00000000000000     0.00000000000000