CRYSTAL
# Primitive lattice vectors in Angstrom
PRIMVEC
 3.37354629053826 0.00000000000000 1.94771785896593
 1.12451543017942 3.18060994491510 1.94771785896593
 0.00000000000000 0.00000000000000 3.89543571793186
# Cartesian coordinates in Angstrom.
PRIMCOORD
 3 1
Po     0.00000000000000     0.00000000000000     0.00000000000000
O     1.12451543017942     0.79515248622878     1.94771785896593
O     3.37354629053826     2.38545745868633     5.84315357689778