CRYSTAL
# Primitive lattice vectors in Angstrom
PRIMVEC
 5.54736526673596 0.00000000000000 0.00000000000000
 -0.00000000000000 5.54736526673596 0.00000000000000
 0.00000000000000 0.00000000000000 5.54736526673596
# Cartesian coordinates in Angstrom.
PRIMCOORD
 14 1
Po     0.00000000000000     0.00000000000000     0.00000000000000
Po     2.77368263336798     2.77368263336798     0.00000000000000
Po     2.77368263336798     0.00000000000000     2.77368263336798
Po    -0.00000000000000     2.77368263336798     2.77368263336798
O     2.77368263336798     0.00000000000000     0.00000000000000
O    -0.00000000000000     2.77368263336798     0.00000000000000
O     0.00000000000000     0.00000000000000     2.77368263336798
O     2.77368263336798     2.77368263336798     2.77368263336798
O     4.16052395005197     4.16052395005197     1.38684131668399
O     4.16052395005197     1.38684131668399     4.16052395005197
O     1.38684131668399     4.16052395005197     4.16052395005197
O     4.16052395005197     1.38684131668399     1.38684131668399
O     1.38684131668399     4.16052395005197     1.38684131668399
O     1.38684131668399     1.38684131668399     4.16052395005197