CRYSTAL
# Primitive lattice vectors in Angstrom
PRIMVEC
 4.24798548649138 0.00000000000000 0.00000000000000
 -0.00000000000000 4.24798548649138 0.00000000000000
 0.00000000000000 0.00000000000000 4.24798548649138
# Cartesian coordinates in Angstrom.
PRIMCOORD
 4 1
Pr     0.00000000000000     0.00000000000000     0.00000000000000
O     2.12399274324569     0.00000000000000     0.00000000000000
O    -0.00000000000000     2.12399274324569     0.00000000000000
O     0.00000000000000     0.00000000000000     2.12399274324569