CRYSTAL
# Primitive lattice vectors in Angstrom
PRIMVEC
 3.63536861844414 0.00000000000000 2.09888105046224
 1.21178953948138 3.42745840295283 2.09888105046224
 0.00000000000000 0.00000000000000 4.19776210092448
# Cartesian coordinates in Angstrom.
PRIMCOORD
 3 1
Pr     1.21178953948138     0.85686460073821     2.09888105046224
Pr     3.63536861844414     2.57059380221462     6.29664315138672
O     0.00000000000000     0.00000000000000     0.00000000000000