CRYSTAL
# Primitive lattice vectors in Angstrom
PRIMVEC
 5.42874575730905 0.00000000000000 0.00000000000000
 -0.00000000000000 5.42874575730905 0.00000000000000
 0.00000000000000 0.00000000000000 5.42874575730905
# Cartesian coordinates in Angstrom.
PRIMCOORD
 10 1
Pr     1.35718643932726     1.35718643932726     1.35718643932726
Pr     4.07155931798178     4.07155931798178     1.35718643932726
Pr     4.07155931798178     1.35718643932726     4.07155931798178
Pr     1.35718643932726     4.07155931798178     4.07155931798178
O     2.71437287865452     0.00000000000000     0.00000000000000
O    -0.00000000000000     2.71437287865452     0.00000000000000
O     0.00000000000000     0.00000000000000     2.71437287865452
O     2.71437287865452     2.71437287865452     0.00000000000000
O     2.71437287865452     0.00000000000000     2.71437287865452
O    -0.00000000000000     2.71437287865452     2.71437287865452