CRYSTAL
# Primitive lattice vectors in Angstrom
PRIMVEC
 3.02306684273421 0.00000000000000 1.74536845543083
 1.00768894757807 2.85017475263675 1.74536845543083
 0.00000000000000 0.00000000000000 3.49073691086165
# Cartesian coordinates in Angstrom.
PRIMCOORD
 2 1
Pr     0.00000000000000     0.00000000000000     0.00000000000000
O     2.01537789515614     1.42508737631838     3.49073691086165