CRYSTAL
# Primitive lattice vectors in Angstrom
PRIMVEC
 3.31933497566928 0.00000000000000 1.91641894173320
 1.10644499188976 3.12949902710058 1.91641894173320
 0.00000000000000 0.00000000000000 3.83283788346640
# Cartesian coordinates in Angstrom.
PRIMCOORD
 3 1
Pr     0.00000000000000     0.00000000000000     0.00000000000000
O     1.10644499188976     0.78237475677514     1.91641894173320
O     3.31933497566928     2.34712427032543     5.74925682519960