CRYSTAL
# Primitive lattice vectors in Angstrom
PRIMVEC
 5.44163132083596 0.00000000000000 0.00000000000000
 -0.00000000000000 5.44163132083596 0.00000000000000
 0.00000000000000 0.00000000000000 5.44163132083596
# Cartesian coordinates in Angstrom.
PRIMCOORD
 14 1
Pr     0.00000000000000     0.00000000000000     0.00000000000000
Pr     2.72081566041798     2.72081566041798     0.00000000000000
Pr     2.72081566041798     0.00000000000000     2.72081566041798
Pr    -0.00000000000000     2.72081566041798     2.72081566041798
O     2.72081566041798     0.00000000000000     0.00000000000000
O    -0.00000000000000     2.72081566041798     0.00000000000000
O     0.00000000000000     0.00000000000000     2.72081566041798
O     2.72081566041798     2.72081566041798     2.72081566041798
O     4.08122349062697     4.08122349062697     1.36040783020899
O     4.08122349062697     1.36040783020899     4.08122349062697
O     1.36040783020899     4.08122349062697     4.08122349062697
O     4.08122349062697     1.36040783020899     1.36040783020899
O     1.36040783020899     4.08122349062697     1.36040783020899
O     1.36040783020899     1.36040783020899     4.08122349062697