CRYSTAL
# Primitive lattice vectors in Angstrom
PRIMVEC
 4.94938105067756 0.00000000000000 0.00000000000000
 -0.00000000000000 4.94938105067756 0.00000000000000
 0.00000000000000 0.00000000000000 4.94938105067756
# Cartesian coordinates in Angstrom.
PRIMCOORD
 10 1
Pt     1.23734526266939     1.23734526266939     1.23734526266939
Pt     3.71203578800817     3.71203578800817     1.23734526266939
Pt     3.71203578800817     1.23734526266939     3.71203578800817
Pt     1.23734526266939     3.71203578800817     3.71203578800817
O     2.47469052533878     0.00000000000000     0.00000000000000
O    -0.00000000000000     2.47469052533878     0.00000000000000
O     0.00000000000000     0.00000000000000     2.47469052533878
O     2.47469052533878     2.47469052533878     0.00000000000000
O     2.47469052533878     0.00000000000000     2.47469052533878
O    -0.00000000000000     2.47469052533878     2.47469052533878