CRYSTAL
# Primitive lattice vectors in Angstrom
PRIMVEC
 3.41138698207611 0.00000000000000 1.96956519241163
 1.13712899402537 3.21628649103671 1.96956519241163
 0.00000000000000 0.00000000000000 3.93913038482326
# Cartesian coordinates in Angstrom.
PRIMCOORD
 3 1
Pt     1.13712899402537     0.80407162275918     1.96956519241163
Pt     3.41138698207611     2.41221486827753     5.90869557723489
O     0.00000000000000     0.00000000000000     0.00000000000000