CRYSTAL
# Primitive lattice vectors in Angstrom
PRIMVEC
 2.82904596993634 0.00000000000000 1.63335045229257
 0.94301532331211 2.66725011950728 1.63335045229257
 0.00000000000000 0.00000000000000 3.26670090458514
# Cartesian coordinates in Angstrom.
PRIMCOORD
 2 1
Pt     0.00000000000000     0.00000000000000     0.00000000000000
O     1.88603064662423     1.33362505975364     3.26670090458514