CRYSTAL
# Primitive lattice vectors in Angstrom
PRIMVEC
 5.17421773287639 0.00000000000000 0.00000000000000
 -0.00000000000000 5.17421773287639 0.00000000000000
 0.00000000000000 0.00000000000000 5.17421773287639
# Cartesian coordinates in Angstrom.
PRIMCOORD
 14 1
Pt     0.00000000000000     0.00000000000000     0.00000000000000
Pt     2.58710886643820     2.58710886643820     0.00000000000000
Pt     2.58710886643820     0.00000000000000     2.58710886643820
Pt    -0.00000000000000     2.58710886643820     2.58710886643820
O     2.58710886643820     0.00000000000000     0.00000000000000
O    -0.00000000000000     2.58710886643820     0.00000000000000
O     0.00000000000000     0.00000000000000     2.58710886643820
O     2.58710886643820     2.58710886643820     2.58710886643820
O     3.88066329965729     3.88066329965729     1.29355443321910
O     3.88066329965729     1.29355443321910     3.88066329965729
O     1.29355443321910     3.88066329965729     3.88066329965729
O     3.88066329965729     1.29355443321910     1.29355443321910
O     1.29355443321910     3.88066329965729     1.29355443321910
O     1.29355443321910     1.29355443321910     3.88066329965729