CRYSTAL
# Primitive lattice vectors in Angstrom
PRIMVEC
 3.09547911150643 0.00000000000000 1.78717569829910
 1.03182637050214 2.91844569435668 1.78717569829910
 0.00000000000000 0.00000000000000 3.57435139659820
# Cartesian coordinates in Angstrom.
PRIMCOORD
 3 1
Pt     0.00000000000000     0.00000000000000     0.00000000000000
O     1.03182637050214     0.72961142358917     1.78717569829910
O     3.09547911150643     2.18883427076751     5.36152709489731