CRYSTAL
# Primitive lattice vectors in Angstrom
PRIMVEC
 3.85604822812288 0.00000000000000 0.00000000000000
 -0.00000000000000 3.85604822812288 0.00000000000000
 0.00000000000000 0.00000000000000 3.85604822812288
# Cartesian coordinates in Angstrom.
PRIMCOORD
 4 1
Pt     0.00000000000000     0.00000000000000     0.00000000000000
O     1.92802411406144     0.00000000000000     0.00000000000000
O    -0.00000000000000     1.92802411406144     0.00000000000000
O     0.00000000000000     0.00000000000000     1.92802411406144