CRYSTAL
# Primitive lattice vectors in Angstrom
PRIMVEC
 2.91052780690146 0.00000000000000 1.68039401279845
 0.97017593563382 2.74407193212271 1.68039401279845
 0.00000000000000 0.00000000000000 3.36078802559689
# Cartesian coordinates in Angstrom.
PRIMCOORD
 2 1
Pu     0.00000000000000     0.00000000000000     0.00000000000000
O     1.94035187126764     1.37203596606135     3.36078802559690