CRYSTAL
# Primitive lattice vectors in Angstrom
PRIMVEC
 3.47931017270935 0.00000000000000 2.00878066480795
 1.15977005756978 3.28032508929882 2.00878066480795
 0.00000000000000 0.00000000000000 4.01756132961589
# Cartesian coordinates in Angstrom.
PRIMCOORD
 3 1
Pu     1.15977005756978     0.82008127232471     2.00878066480795
Pu     3.47931017270935     2.46024381697412     6.02634199442384
O     0.00000000000000     0.00000000000000     0.00000000000000