CRYSTAL
# Primitive lattice vectors in Angstrom
PRIMVEC
 3.25090861519027 0.00000000000000 1.87691296409098
 1.08363620506342 3.06498603575841 1.87691296409098
 0.00000000000000 0.00000000000000 3.75382592818195
# Cartesian coordinates in Angstrom.
PRIMCOORD
 3 1
Pu     0.00000000000000     0.00000000000000     0.00000000000000
O     1.08363620506342     0.76624650893960     1.87691296409098
O     3.25090861519027     2.29873952681881     5.63073889227293