CRYSTAL
# Primitive lattice vectors in Angstrom
PRIMVEC
 5.29508733709495 0.00000000000000 0.00000000000000
 -0.00000000000000 5.29508733709495 0.00000000000000
 0.00000000000000 0.00000000000000 5.29508733709495
# Cartesian coordinates in Angstrom.
PRIMCOORD
 14 1
Pu     0.00000000000000     0.00000000000000     0.00000000000000
Pu     2.64754366854748     2.64754366854748     0.00000000000000
Pu     2.64754366854748     0.00000000000000     2.64754366854748
Pu    -0.00000000000000     2.64754366854748     2.64754366854748
O     2.64754366854748     0.00000000000000     0.00000000000000
O    -0.00000000000000     2.64754366854748     0.00000000000000
O     0.00000000000000     0.00000000000000     2.64754366854748
O     2.64754366854748     2.64754366854748     2.64754366854748
O     3.97131550282122     3.97131550282122     1.32377183427374
O     3.97131550282122     1.32377183427374     3.97131550282122
O     1.32377183427374     3.97131550282122     3.97131550282122
O     3.97131550282122     1.32377183427374     1.32377183427374
O     1.32377183427374     3.97131550282122     1.32377183427374
O     1.32377183427374     1.32377183427374     3.97131550282122