CRYSTAL
# Primitive lattice vectors in Angstrom
PRIMVEC
 4.09836060882056 0.00000000000000 0.00000000000000
 -0.00000000000000 4.09836060882056 0.00000000000000
 0.00000000000000 0.00000000000000 4.09836060882056
# Cartesian coordinates in Angstrom.
PRIMCOORD
 4 1
Pu     0.00000000000000     0.00000000000000     0.00000000000000
O     2.04918030441028     0.00000000000000     0.00000000000000
O    -0.00000000000000     2.04918030441028     0.00000000000000
O     0.00000000000000     0.00000000000000     2.04918030441028