CRYSTAL
# Primitive lattice vectors in Angstrom
PRIMVEC
 5.25783777629473 0.00000000000000 0.00000000000000
 -0.00000000000000 5.25783777629473 0.00000000000000
 0.00000000000000 0.00000000000000 5.25783777629473
# Cartesian coordinates in Angstrom.
PRIMCOORD
 10 1
Pu     1.31445944407368     1.31445944407368     1.31445944407368
Pu     3.94337833222105     3.94337833222105     1.31445944407368
Pu     3.94337833222105     1.31445944407368     3.94337833222105
Pu     1.31445944407368     3.94337833222105     3.94337833222105
O     2.62891888814737     0.00000000000000     0.00000000000000
O    -0.00000000000000     2.62891888814737     0.00000000000000
O     0.00000000000000     0.00000000000000     2.62891888814737
O     2.62891888814737     2.62891888814737     0.00000000000000
O     2.62891888814737     0.00000000000000     2.62891888814737
O    -0.00000000000000     2.62891888814737     2.62891888814737