CRYSTAL
# Primitive lattice vectors in Angstrom
PRIMVEC
 4.44171478528417 0.00000000000000 0.00000000000000
 -0.00000000000000 4.44171478528417 0.00000000000000
 0.00000000000000 0.00000000000000 4.44171478528417
# Cartesian coordinates in Angstrom.
PRIMCOORD
 4 1
Ra     0.00000000000000     0.00000000000000     0.00000000000000
O     2.22085739264209     0.00000000000000     0.00000000000000
O    -0.00000000000000     2.22085739264209     0.00000000000000
O     0.00000000000000     0.00000000000000     2.22085739264209