CRYSTAL
# Primitive lattice vectors in Angstrom
PRIMVEC
 4.41678508677082 0.00000000000000 2.55003205879986
 1.47226169559027 4.16418491453234 2.55003205879986
 0.00000000000000 0.00000000000000 5.10006411759971
# Cartesian coordinates in Angstrom.
PRIMCOORD
 3 1
Ra     1.47226169559027     1.04104622863309     2.55003205879986
Ra     4.41678508677082     3.12313868589926     7.65009617639957
O     0.00000000000000     0.00000000000000     0.00000000000000