CRYSTAL
# Primitive lattice vectors in Angstrom
PRIMVEC
 3.52889169819969 0.00000000000000 2.03740657189663
 1.17629723273323 3.32707099982655 2.03740657189663
 0.00000000000000 0.00000000000000 4.07481314379326
# Cartesian coordinates in Angstrom.
PRIMCOORD
 2 1
Ra     0.00000000000000     0.00000000000000     0.00000000000000
O     2.35259446546646     1.66353549991328     4.07481314379326