CRYSTAL
# Primitive lattice vectors in Angstrom
PRIMVEC
 6.24084859341821 0.00000000000000 0.00000000000000
 -0.00000000000000 6.24084859341821 0.00000000000000
 0.00000000000000 0.00000000000000 6.24084859341821
# Cartesian coordinates in Angstrom.
PRIMCOORD
 14 1
Ra     0.00000000000000     0.00000000000000     0.00000000000000
Ra     3.12042429670910     3.12042429670910     0.00000000000000
Ra     3.12042429670910     0.00000000000000     3.12042429670910
Ra    -0.00000000000000     3.12042429670910     3.12042429670910
O     3.12042429670910     0.00000000000000     0.00000000000000
O    -0.00000000000000     3.12042429670910     0.00000000000000
O     0.00000000000000     0.00000000000000     3.12042429670910
O     3.12042429670910     3.12042429670910     3.12042429670910
O     4.68063644506366     4.68063644506366     1.56021214835455
O     4.68063644506366     1.56021214835455     4.68063644506366
O     1.56021214835455     4.68063644506366     4.68063644506366
O     4.68063644506366     1.56021214835455     1.56021214835455
O     1.56021214835455     4.68063644506366     1.56021214835455
O     1.56021214835455     1.56021214835455     4.68063644506366