CRYSTAL
# Primitive lattice vectors in Angstrom
PRIMVEC
 6.32564316936667 0.00000000000000 0.00000000000000
 -0.00000000000000 6.32564316936667 0.00000000000000
 0.00000000000000 0.00000000000000 6.32564316936667
# Cartesian coordinates in Angstrom.
PRIMCOORD
 10 1
Ra     1.58141079234167     1.58141079234167     1.58141079234167
Ra     4.74423237702500     4.74423237702500     1.58141079234167
Ra     4.74423237702500     1.58141079234167     4.74423237702500
Ra     1.58141079234167     4.74423237702500     4.74423237702500
O     3.16282158468333     0.00000000000000     0.00000000000000
O    -0.00000000000000     3.16282158468333     0.00000000000000
O     0.00000000000000     0.00000000000000     3.16282158468333
O     3.16282158468333     3.16282158468333     0.00000000000000
O     3.16282158468333     0.00000000000000     3.16282158468333
O    -0.00000000000000     3.16282158468333     3.16282158468333