CRYSTAL
# Primitive lattice vectors in Angstrom
PRIMVEC
 3.88528252172906 0.00000000000000 2.24316890979802
 1.29509417390969 3.66307949058692 2.24316890979802
 0.00000000000000 0.00000000000000 4.48633781959605
# Cartesian coordinates in Angstrom.
PRIMCOORD
 3 1
Ra     0.00000000000000     0.00000000000000     0.00000000000000
O     1.29509417390969     0.91576987264673     2.24316890979802
O     3.88528252172906     2.74730961794019     6.72950672939407