CRYSTAL
# Primitive lattice vectors in Angstrom
PRIMVEC
 3.55187341112788 0.00000000000000 2.05067507004216
 1.18395780370929 3.34873836656629 2.05067507004216
 0.00000000000000 0.00000000000000 4.10135014008432
# Cartesian coordinates in Angstrom.
PRIMCOORD
 2 1
Rb     0.00000000000000     0.00000000000000     0.00000000000000
O     2.36791560741859     1.67436918328315     4.10135014008432