CRYSTAL
# Primitive lattice vectors in Angstrom
PRIMVEC
 6.11532576250899 0.00000000000000 0.00000000000000
 -0.00000000000000 6.11532576250899 0.00000000000000
 0.00000000000000 0.00000000000000 6.11532576250899
# Cartesian coordinates in Angstrom.
PRIMCOORD
 14 1
Rb     0.00000000000000     0.00000000000000     0.00000000000000
Rb     3.05766288125449     3.05766288125449     0.00000000000000
Rb     3.05766288125449     0.00000000000000     3.05766288125449
Rb    -0.00000000000000     3.05766288125449     3.05766288125449
O     3.05766288125449     0.00000000000000     0.00000000000000
O    -0.00000000000000     3.05766288125449     0.00000000000000
O     0.00000000000000     0.00000000000000     3.05766288125449
O     3.05766288125449     3.05766288125449     3.05766288125450
O     4.58649432188174     4.58649432188174     1.52883144062725
O     4.58649432188174     1.52883144062725     4.58649432188174
O     1.52883144062725     4.58649432188174     4.58649432188174
O     4.58649432188174     1.52883144062725     1.52883144062725
O     1.52883144062725     4.58649432188174     1.52883144062725
O     1.52883144062725     1.52883144062725     4.58649432188174