CRYSTAL
# Primitive lattice vectors in Angstrom
PRIMVEC
 4.20724070634797 0.00000000000000 2.42905155435555
 1.40241356878266 3.96662457805697 2.42905155435555
 0.00000000000000 0.00000000000000 4.85810310871110
# Cartesian coordinates in Angstrom.
PRIMCOORD
 3 1
Rb     1.40241356878266     0.99165614451424     2.42905155435555
Rb     4.20724070634797     2.97496843354273     7.28715466306666
O     0.00000000000000     0.00000000000000     0.00000000000000