CRYSTAL
# Primitive lattice vectors in Angstrom
PRIMVEC
 6.45568762488004 0.00000000000000 0.00000000000000
 -0.00000000000000 6.45568762488004 0.00000000000000
 0.00000000000000 0.00000000000000 6.45568762488004
# Cartesian coordinates in Angstrom.
PRIMCOORD
 10 1
Rb     1.61392190622001     1.61392190622001     1.61392190622001
Rb     4.84176571866003     4.84176571866003     1.61392190622001
Rb     4.84176571866003     1.61392190622001     4.84176571866003
Rb     1.61392190622001     4.84176571866003     4.84176571866003
O     3.22784381244002     0.00000000000000     0.00000000000000
O    -0.00000000000000     3.22784381244002     0.00000000000000
O     0.00000000000000     0.00000000000000     3.22784381244002
O     3.22784381244002     3.22784381244002     0.00000000000000
O     3.22784381244002     0.00000000000000     3.22784381244002
O    -0.00000000000000     3.22784381244002     3.22784381244002