CRYSTAL
# Primitive lattice vectors in Angstrom
PRIMVEC
 3.98840656058575 0.00000000000000 2.30270760139185
 1.32946885352858 3.76030576682547 2.30270760139185
 0.00000000000000 0.00000000000000 4.60541520278371
# Cartesian coordinates in Angstrom.
PRIMCOORD
 3 1
Rb     0.00000000000000     0.00000000000000     0.00000000000000
O     1.32946885352858     0.94007644170637     2.30270760139185
O     3.98840656058575     2.82022932511910     6.90812280417556