CRYSTAL
# Primitive lattice vectors in Angstrom
PRIMVEC
 4.78620576188471 0.00000000000000 0.00000000000000
 -0.00000000000000 4.78620576188471 0.00000000000000
 0.00000000000000 0.00000000000000 4.78620576188471
# Cartesian coordinates in Angstrom.
PRIMCOORD
 4 1
Rb     0.00000000000000     0.00000000000000     0.00000000000000
O     2.39310288094235     0.00000000000000     0.00000000000000
O    -0.00000000000000     2.39310288094235     0.00000000000000
O     0.00000000000000     0.00000000000000     2.39310288094235