CRYSTAL
# Primitive lattice vectors in Angstrom
PRIMVEC
 3.32985568448255 0.00000000000000 1.92249307579860
 1.10995189482752 3.13941804649357 1.92249307579860
 0.00000000000000 0.00000000000000 3.84498615159721
# Cartesian coordinates in Angstrom.
PRIMCOORD
 3 1
Re     1.10995189482752     0.78485451162339     1.92249307579860
Re     3.32985568448255     2.35456353487018     5.76747922739581
O     0.00000000000000     0.00000000000000     0.00000000000000