CRYSTAL
# Primitive lattice vectors in Angstrom
PRIMVEC
 3.77543748563722 0.00000000000000 0.00000000000000
 -0.00000000000000 3.77543748563722 0.00000000000000
 0.00000000000000 0.00000000000000 3.77543748563722
# Cartesian coordinates in Angstrom.
PRIMCOORD
 4 1
Re     0.00000000000000     0.00000000000000     0.00000000000000
O     1.88771874281861     0.00000000000000     0.00000000000000
O    -0.00000000000000     1.88771874281861     0.00000000000000
O     0.00000000000000     0.00000000000000     1.88771874281861