CRYSTAL
# Primitive lattice vectors in Angstrom
PRIMVEC
 2.99694261122172 0.00000000000000 1.73028562333472
 0.99898087040724 2.82554459096240 1.73028562333472
 0.00000000000000 0.00000000000000 3.46057124666944
# Cartesian coordinates in Angstrom.
PRIMCOORD
 3 1
Re     0.00000000000000     0.00000000000000     0.00000000000000
O     0.99898087040724     0.70638614774060     1.73028562333472
O     2.99694261122172     2.11915844322180     5.19085687000416