CRYSTAL
# Primitive lattice vectors in Angstrom
PRIMVEC
 2.72844385802427 0.00000000000000 1.57526779589910
 0.90948128600809 2.57240153879433 1.57526779589910
 0.00000000000000 0.00000000000000 3.15053559179819
# Cartesian coordinates in Angstrom.
PRIMCOORD
 2 1
Re     0.00000000000000     0.00000000000000     0.00000000000000
O     1.81896257201618     1.28620076939717     3.15053559179819