CRYSTAL
# Primitive lattice vectors in Angstrom
PRIMVEC
 4.80141285966323 0.00000000000000 0.00000000000000
 -0.00000000000000 4.80141285966323 0.00000000000000
 0.00000000000000 0.00000000000000 4.80141285966323
# Cartesian coordinates in Angstrom.
PRIMCOORD
 10 1
Re     1.20035321491581     1.20035321491581     1.20035321491581
Re     3.60105964474742     3.60105964474742     1.20035321491581
Re     3.60105964474742     1.20035321491581     3.60105964474742
Re     1.20035321491581     3.60105964474742     3.60105964474742
O     2.40070642983161     0.00000000000000     0.00000000000000
O    -0.00000000000000     2.40070642983161     0.00000000000000
O     0.00000000000000     0.00000000000000     2.40070642983161
O     2.40070642983161     2.40070642983161     0.00000000000000
O     2.40070642983161     0.00000000000000     2.40070642983161
O    -0.00000000000000     2.40070642983161     2.40070642983161