CRYSTAL
# Primitive lattice vectors in Angstrom
PRIMVEC
 4.99298549086981 0.00000000000000 0.00000000000000
 -0.00000000000000 4.99298549086981 0.00000000000000
 0.00000000000000 0.00000000000000 4.99298549086981
# Cartesian coordinates in Angstrom.
PRIMCOORD
 14 1
Re     0.00000000000000     0.00000000000000     0.00000000000000
Re     2.49649274543490     2.49649274543490     0.00000000000000
Re     2.49649274543490     0.00000000000000     2.49649274543490
Re    -0.00000000000000     2.49649274543490     2.49649274543490
O     2.49649274543490     0.00000000000000     0.00000000000000
O    -0.00000000000000     2.49649274543490     0.00000000000000
O     0.00000000000000     0.00000000000000     2.49649274543490
O     2.49649274543490     2.49649274543490     2.49649274543491
O     3.74473911815236     3.74473911815236     1.24824637271745
O     3.74473911815236     1.24824637271745     3.74473911815236
O     1.24824637271745     3.74473911815236     3.74473911815236
O     3.74473911815236     1.24824637271745     1.24824637271745
O     1.24824637271745     3.74473911815236     1.24824637271745
O     1.24824637271745     1.24824637271745     3.74473911815236