CRYSTAL
# Primitive lattice vectors in Angstrom
PRIMVEC
 3.29263786813987 0.00000000000000 1.90100535951451
 1.09754595604662 3.10432875273776 1.90100535951451
 0.00000000000000 0.00000000000000 3.80201071902902
# Cartesian coordinates in Angstrom.
PRIMCOORD
 3 1
Rh     1.09754595604662     0.77608218818444     1.90100535951451
Rh     3.29263786813987     2.32824656455332     5.70301607854353
O     0.00000000000000     0.00000000000000     0.00000000000000