CRYSTAL
# Primitive lattice vectors in Angstrom
PRIMVEC
 2.72411034534961 0.00000000000000 1.57276584118984
 0.90803678178320 2.56831586386285 1.57276584118984
 0.00000000000000 0.00000000000000 3.14553168237969
# Cartesian coordinates in Angstrom.
PRIMCOORD
 2 1
Rh     0.00000000000000     0.00000000000000     0.00000000000000
O     1.81607356356641     1.28415793193143     3.14553168237969