CRYSTAL
# Primitive lattice vectors in Angstrom
PRIMVEC
 3.78622446528378 0.00000000000000 0.00000000000000
 -0.00000000000000 3.78622446528378 0.00000000000000
 0.00000000000000 0.00000000000000 3.78622446528378
# Cartesian coordinates in Angstrom.
PRIMCOORD
 4 1
Rh     0.00000000000000     0.00000000000000     0.00000000000000
O     1.89311223264189     0.00000000000000     0.00000000000000
O    -0.00000000000000     1.89311223264189     0.00000000000000
O     0.00000000000000     0.00000000000000     1.89311223264189