CRYSTAL
# Primitive lattice vectors in Angstrom
PRIMVEC
 5.07628622557223 0.00000000000000 0.00000000000000
 -0.00000000000000 5.07628622557223 0.00000000000000
 0.00000000000000 0.00000000000000 5.07628622557223
# Cartesian coordinates in Angstrom.
PRIMCOORD
 14 1
Rh     0.00000000000000     0.00000000000000     0.00000000000000
Rh     2.53814311278612     2.53814311278612     0.00000000000000
Rh     2.53814311278612     0.00000000000000     2.53814311278612
Rh    -0.00000000000000     2.53814311278612     2.53814311278612
O     2.53814311278612     0.00000000000000     0.00000000000000
O    -0.00000000000000     2.53814311278612     0.00000000000000
O     0.00000000000000     0.00000000000000     2.53814311278612
O     2.53814311278612     2.53814311278612     2.53814311278612
O     3.80721466917917     3.80721466917917     1.26907155639306
O     3.80721466917917     1.26907155639306     3.80721466917917
O     1.26907155639306     3.80721466917917     3.80721466917917
O     3.80721466917917     1.26907155639306     1.26907155639306
O     1.26907155639306     3.80721466917917     1.26907155639306
O     1.26907155639306     1.26907155639306     3.80721466917917