CRYSTAL
# Primitive lattice vectors in Angstrom
PRIMVEC
 4.77449775670201 0.00000000000000 0.00000000000000
 -0.00000000000000 4.77449775670201 0.00000000000000
 0.00000000000000 0.00000000000000 4.77449775670201
# Cartesian coordinates in Angstrom.
PRIMCOORD
 10 1
Rh     1.19362443917550     1.19362443917550     1.19362443917550
Rh     3.58087331752651     3.58087331752651     1.19362443917550
Rh     3.58087331752651     1.19362443917550     3.58087331752651
Rh     1.19362443917550     3.58087331752651     3.58087331752651
O     2.38724887835100     0.00000000000000     0.00000000000000
O    -0.00000000000000     2.38724887835100     0.00000000000000
O     0.00000000000000     0.00000000000000     2.38724887835100
O     2.38724887835100     2.38724887835100     0.00000000000000
O     2.38724887835100     0.00000000000000     2.38724887835100
O    -0.00000000000000     2.38724887835100     2.38724887835100