CRYSTAL
# Primitive lattice vectors in Angstrom
PRIMVEC
 3.00676135010806 0.00000000000000 1.73595447487385
 1.00225378336935 2.83480178676137 1.73595447487385
 0.00000000000000 0.00000000000000 3.47190894974770
# Cartesian coordinates in Angstrom.
PRIMCOORD
 3 1
Rh     0.00000000000000     0.00000000000000     0.00000000000000
O     1.00225378336935     0.70870044669034     1.73595447487385
O     3.00676135010806     2.12610134007103     5.20786342462155