CRYSTAL
# Primitive lattice vectors in Angstrom
PRIMVEC
 3.54948629154817 0.00000000000000 2.04929686591022
 1.18316209718272 3.34648776864320 2.04929686591022
 0.00000000000000 0.00000000000000 4.09859373182045
# Cartesian coordinates in Angstrom.
PRIMCOORD
 3 1
Rn     0.00000000000000     0.00000000000000     0.00000000000000
O     1.18316209718272     0.83662194216080     2.04929686591022
O     3.54948629154817     2.50986582648240     6.14789059773067