CRYSTAL
# Primitive lattice vectors in Angstrom
PRIMVEC
 5.87849213086502 0.00000000000000 0.00000000000000
 -0.00000000000000 5.87849213086502 0.00000000000000
 0.00000000000000 0.00000000000000 5.87849213086502
# Cartesian coordinates in Angstrom.
PRIMCOORD
 10 1
Rn     1.46962303271626     1.46962303271626     1.46962303271626
Rn     4.40886909814877     4.40886909814877     1.46962303271626
Rn     4.40886909814877     1.46962303271626     4.40886909814877
Rn     1.46962303271626     4.40886909814877     4.40886909814877
O     2.93924606543251     0.00000000000000     0.00000000000000
O    -0.00000000000000     2.93924606543251     0.00000000000000
O     0.00000000000000     0.00000000000000     2.93924606543251
O     2.93924606543251     2.93924606543251     0.00000000000000
O     2.93924606543251     0.00000000000000     2.93924606543251
O    -0.00000000000000     2.93924606543251     2.93924606543251