CRYSTAL
# Primitive lattice vectors in Angstrom
PRIMVEC
 5.00726294777282 0.00000000000000 2.89094461079988
 1.66908764925761 4.72089278073907 2.89094461079988
 0.00000000000000 0.00000000000000 5.78188922159975
# Cartesian coordinates in Angstrom.
PRIMCOORD
 3 1
Rn     1.66908764925761     1.18022319518477     2.89094461079988
Rn     5.00726294777282     3.54066958555430     8.67283383239963
O     0.00000000000000     0.00000000000000     0.00000000000000