CRYSTAL
# Primitive lattice vectors in Angstrom
PRIMVEC
 3.52141400958950 0.00000000000000 2.03308932636462
 1.17380466986317 3.32002096739473 2.03308932636462
 0.00000000000000 0.00000000000000 4.06617865272924
# Cartesian coordinates in Angstrom.
PRIMCOORD
 2 1
Rn     0.00000000000000     0.00000000000000     0.00000000000000
O     2.34760933972633     1.66001048369736     4.06617865272924