CRYSTAL
# Primitive lattice vectors in Angstrom
PRIMVEC
 5.66949188604740 0.00000000000000 0.00000000000000
 -0.00000000000000 5.66949188604740 0.00000000000000
 0.00000000000000 0.00000000000000 5.66949188604740
# Cartesian coordinates in Angstrom.
PRIMCOORD
 14 1
Rn     0.00000000000000     0.00000000000000     0.00000000000000
Rn     2.83474594302370     2.83474594302370     0.00000000000000
Rn     2.83474594302370     0.00000000000000     2.83474594302370
Rn    -0.00000000000000     2.83474594302370     2.83474594302370
O     2.83474594302370     0.00000000000000     0.00000000000000
O    -0.00000000000000     2.83474594302370     0.00000000000000
O     0.00000000000000     0.00000000000000     2.83474594302370
O     2.83474594302370     2.83474594302370     2.83474594302370
O     4.25211891453555     4.25211891453555     1.41737297151185
O     4.25211891453555     1.41737297151185     4.25211891453555
O     1.41737297151185     4.25211891453555     4.25211891453555
O     4.25211891453555     1.41737297151185     1.41737297151185
O     1.41737297151185     4.25211891453555     1.41737297151185
O     1.41737297151185     1.41737297151185     4.25211891453555