CRYSTAL
# Primitive lattice vectors in Angstrom
PRIMVEC
 4.16143182205312 0.00000000000000 0.00000000000000
 -0.00000000000000 4.16143182205312 0.00000000000000
 0.00000000000000 0.00000000000000 4.16143182205312
# Cartesian coordinates in Angstrom.
PRIMCOORD
 4 1
Rn     0.00000000000000     0.00000000000000     0.00000000000000
O     2.08071591102656     0.00000000000000     0.00000000000000
O    -0.00000000000000     2.08071591102656     0.00000000000000
O     0.00000000000000     0.00000000000000     2.08071591102656