CRYSTAL
# Primitive lattice vectors in Angstrom
PRIMVEC
 5.02062965158022 0.00000000000000 0.00000000000000
 -0.00000000000000 5.02062965158022 0.00000000000000
 0.00000000000000 0.00000000000000 5.02062965158022
# Cartesian coordinates in Angstrom.
PRIMCOORD
 14 1
Ru     0.00000000000000     0.00000000000000     0.00000000000000
Ru     2.51031482579011     2.51031482579011     0.00000000000000
Ru     2.51031482579011     0.00000000000000     2.51031482579011
Ru    -0.00000000000000     2.51031482579011     2.51031482579011
O     2.51031482579011     0.00000000000000     0.00000000000000
O    -0.00000000000000     2.51031482579011     0.00000000000000
O     0.00000000000000     0.00000000000000     2.51031482579011
O     2.51031482579011     2.51031482579011     2.51031482579011
O     3.76547223868516     3.76547223868516     1.25515741289505
O     3.76547223868516     1.25515741289505     3.76547223868516
O     1.25515741289505     3.76547223868516     3.76547223868516
O     3.76547223868516     1.25515741289505     1.25515741289505
O     1.25515741289505     3.76547223868516     1.25515741289505
O     1.25515741289505     1.25515741289505     3.76547223868516