CRYSTAL
# Primitive lattice vectors in Angstrom
PRIMVEC
 2.69908819148407 0.00000000000000 1.55831929391987
 0.89969606382802 2.54472475095856 1.55831929391987
 0.00000000000000 0.00000000000000 3.11663858783973
# Cartesian coordinates in Angstrom.
PRIMCOORD
 2 1
Ru     0.00000000000000     0.00000000000000     0.00000000000000
O     1.79939212765605     1.27236237547928     3.11663858783974