CRYSTAL
# Primitive lattice vectors in Angstrom
PRIMVEC
 3.74500422913330 0.00000000000000 0.00000000000000
 -0.00000000000000 3.74500422913330 0.00000000000000
 0.00000000000000 0.00000000000000 3.74500422913330
# Cartesian coordinates in Angstrom.
PRIMCOORD
 4 1
Ru     0.00000000000000     0.00000000000000     0.00000000000000
O     1.87250211456665     0.00000000000000     0.00000000000000
O    -0.00000000000000     1.87250211456665     0.00000000000000
O     0.00000000000000     0.00000000000000     1.87250211456665