CRYSTAL
# Primitive lattice vectors in Angstrom
PRIMVEC
 4.75159835524107 0.00000000000000 0.00000000000000
 -0.00000000000000 4.75159835524107 0.00000000000000
 0.00000000000000 0.00000000000000 4.75159835524107
# Cartesian coordinates in Angstrom.
PRIMCOORD
 10 1
Ru     1.18789958881027     1.18789958881027     1.18789958881027
Ru     3.56369876643080     3.56369876643080     1.18789958881027
Ru     3.56369876643080     1.18789958881027     3.56369876643080
Ru     1.18789958881027     3.56369876643080     3.56369876643080
O     2.37579917762053     0.00000000000000     0.00000000000000
O    -0.00000000000000     2.37579917762053     0.00000000000000
O     0.00000000000000     0.00000000000000     2.37579917762053
O     2.37579917762053     2.37579917762053     0.00000000000000
O     2.37579917762053     0.00000000000000     2.37579917762053
O    -0.00000000000000     2.37579917762053     2.37579917762053