CRYSTAL
# Primitive lattice vectors in Angstrom
PRIMVEC
 2.95857009117078 0.00000000000000 1.70813123855382
 0.98619003039026 2.78936663211008 1.70813123855382
 0.00000000000000 0.00000000000000 3.41626247710765
# Cartesian coordinates in Angstrom.
PRIMCOORD
 3 1
Ru     0.00000000000000     0.00000000000000     0.00000000000000
O     0.98619003039026     0.69734165802752     1.70813123855382
O     2.95857009117078     2.09202497408256     5.12439371566147