CRYSTAL
# Primitive lattice vectors in Angstrom
PRIMVEC
 3.26474874447864 0.00000000000000 1.88490356646124
 1.08824958149288 3.07803463478815 1.88490356646124
 0.00000000000000 0.00000000000000 3.76980713292247
# Cartesian coordinates in Angstrom.
PRIMCOORD
 3 1
Ru     1.08824958149288     0.76950865869704     1.88490356646124
Ru     3.26474874447864     2.30852597609111     5.65471069938371
O     0.00000000000000     0.00000000000000     0.00000000000000