CRYSTAL
# Primitive lattice vectors in Angstrom
PRIMVEC
 4.89452301609968 0.00000000000000 0.00000000000000
 -0.00000000000000 4.89452301609968 0.00000000000000
 0.00000000000000 0.00000000000000 4.89452301609968
# Cartesian coordinates in Angstrom.
PRIMCOORD
 10 1
S     1.22363075402492     1.22363075402492     1.22363075402492
S     3.67089226207476     3.67089226207476     1.22363075402492
S     3.67089226207476     1.22363075402492     3.67089226207476
S     1.22363075402492     3.67089226207476     3.67089226207476
O     2.44726150804984     0.00000000000000     0.00000000000000
O    -0.00000000000000     2.44726150804984     0.00000000000000
O     0.00000000000000     0.00000000000000     2.44726150804984
O     2.44726150804984     2.44726150804984     0.00000000000000
O     2.44726150804984     0.00000000000000     2.44726150804984
O    -0.00000000000000     2.44726150804984     2.44726150804984