CRYSTAL
# Primitive lattice vectors in Angstrom
PRIMVEC
 5.11920524196160 0.00000000000000 0.00000000000000
 -0.00000000000000 5.11920524196160 0.00000000000000
 0.00000000000000 0.00000000000000 5.11920524196160
# Cartesian coordinates in Angstrom.
PRIMCOORD
 14 1
S     0.00000000000000     0.00000000000000     0.00000000000000
S     2.55960262098080     2.55960262098080     0.00000000000000
S     2.55960262098080     0.00000000000000     2.55960262098080
S    -0.00000000000000     2.55960262098080     2.55960262098080
O     2.55960262098080     0.00000000000000     0.00000000000000
O    -0.00000000000000     2.55960262098080     0.00000000000000
O     0.00000000000000     0.00000000000000     2.55960262098080
O     2.55960262098080     2.55960262098080     2.55960262098080
O     3.83940393147120     3.83940393147120     1.27980131049040
O     3.83940393147120     1.27980131049040     3.83940393147120
O     1.27980131049040     3.83940393147120     3.83940393147120
O     3.83940393147120     1.27980131049040     1.27980131049040
O     1.27980131049040     3.83940393147120     1.27980131049040
O     1.27980131049040     1.27980131049040     3.83940393147120