CRYSTAL
# Primitive lattice vectors in Angstrom
PRIMVEC
 3.39742688715907 0.00000000000000 1.96150532785336
 1.13247562905302 3.20312478732758 1.96150532785336
 0.00000000000000 0.00000000000000 3.92301065570673
# Cartesian coordinates in Angstrom.
PRIMCOORD
 3 1
S     1.13247562905302     0.80078119683189     1.96150532785336
S     3.39742688715907     2.40234359049568     5.88451598356009
O     0.00000000000000     0.00000000000000     0.00000000000000