CRYSTAL
# Primitive lattice vectors in Angstrom
PRIMVEC
 3.01170777691123 0.00000000000000 1.73881029572019
 1.00390259230374 2.83946532267492 1.73881029572019
 0.00000000000000 0.00000000000000 3.47762059144037
# Cartesian coordinates in Angstrom.
PRIMCOORD
 3 1
S     0.00000000000000     0.00000000000000     0.00000000000000
O     1.00390259230374     0.70986633066873     1.73881029572019
O     3.01170777691123     2.12959899200619     5.21643088716056