CRYSTAL
# Primitive lattice vectors in Angstrom
PRIMVEC
 2.83038544950544 0.00000000000000 1.63412380118236
 0.94346181650181 2.66851299295604 1.63412380118236
 0.00000000000000 0.00000000000000 3.26824760236473
# Cartesian coordinates in Angstrom.
PRIMCOORD
 2 1
S     0.00000000000000     0.00000000000000     0.00000000000000
O     1.88692363300362     1.33425649647802     3.26824760236473