CRYSTAL
# Primitive lattice vectors in Angstrom
PRIMVEC
 3.39505334407953 0.00000000000000 0.00000000000000
 -0.00000000000000 3.39505334407953 0.00000000000000
 0.00000000000000 0.00000000000000 3.39505334407953
# Cartesian coordinates in Angstrom.
PRIMCOORD
 4 1
S     0.00000000000000     0.00000000000000     0.00000000000000
O     1.69752667203977     0.00000000000000     0.00000000000000
O    -0.00000000000000     1.69752667203977     0.00000000000000
O     0.00000000000000     0.00000000000000     1.69752667203977