CRYSTAL
# Primitive lattice vectors in Angstrom
PRIMVEC
 3.13752795165859 0.00000000000000 1.81145260748006
 1.04584265055286 2.95808972104017 1.81145260748006
 0.00000000000000 0.00000000000000 3.62290521496012
# Cartesian coordinates in Angstrom.
PRIMCOORD
 2 1
Sb     0.00000000000000     0.00000000000000     0.00000000000000
O     2.09168530110572     1.47904486052008     3.62290521496012