CRYSTAL
# Primitive lattice vectors in Angstrom
PRIMVEC
 3.83843955728097 0.00000000000000 2.21612411166428
 1.27947985242699 3.61891552017076 2.21612411166428
 0.00000000000000 0.00000000000000 4.43224822332856
# Cartesian coordinates in Angstrom.
PRIMCOORD
 3 1
Sb     1.27947985242699     0.90472888004269     2.21612411166428
Sb     3.83843955728098     2.71418664012807     6.64837233499284
O     0.00000000000000     0.00000000000000     0.00000000000000