CRYSTAL
# Primitive lattice vectors in Angstrom
PRIMVEC
 5.40308963464021 0.00000000000000 0.00000000000000
 -0.00000000000000 5.40308963464021 0.00000000000000
 0.00000000000000 0.00000000000000 5.40308963464021
# Cartesian coordinates in Angstrom.
PRIMCOORD
 14 1
Sb     0.00000000000000     0.00000000000000     0.00000000000000
Sb     2.70154481732011     2.70154481732011     0.00000000000000
Sb     2.70154481732011     0.00000000000000     2.70154481732011
Sb    -0.00000000000000     2.70154481732011     2.70154481732011
O     2.70154481732011     0.00000000000000     0.00000000000000
O    -0.00000000000000     2.70154481732011     0.00000000000000
O     0.00000000000000     0.00000000000000     2.70154481732011
O     2.70154481732011     2.70154481732011     2.70154481732011
O     4.05231722598016     4.05231722598016     1.35077240866005
O     4.05231722598016     1.35077240866005     4.05231722598016
O     1.35077240866005     4.05231722598016     4.05231722598016
O     4.05231722598016     1.35077240866005     1.35077240866005
O     1.35077240866005     4.05231722598016     1.35077240866005
O     1.35077240866005     1.35077240866005     4.05231722598016