CRYSTAL
# Primitive lattice vectors in Angstrom
PRIMVEC
 3.25565812699525 0.00000000000000 1.87965509601010
 1.08521937566508 3.06946391843125 1.87965509601010
 0.00000000000000 0.00000000000000 3.75931019202020
# Cartesian coordinates in Angstrom.
PRIMCOORD
 3 1
Sb     0.00000000000000     0.00000000000000     0.00000000000000
O     1.08521937566508     0.76736597960781     1.87965509601010
O     3.25565812699525     2.30209793882344     5.63896528803031