CRYSTAL
# Primitive lattice vectors in Angstrom
PRIMVEC
 5.39904880928194 0.00000000000000 0.00000000000000
 -0.00000000000000 5.39904880928194 0.00000000000000
 0.00000000000000 0.00000000000000 5.39904880928194
# Cartesian coordinates in Angstrom.
PRIMCOORD
 10 1
Sb     1.34976220232049     1.34976220232049     1.34976220232049
Sb     4.04928660696146     4.04928660696146     1.34976220232049
Sb     4.04928660696146     1.34976220232049     4.04928660696146
Sb     1.34976220232048     4.04928660696146     4.04928660696146
O     2.69952440464097     0.00000000000000     0.00000000000000
O    -0.00000000000000     2.69952440464097     0.00000000000000
O     0.00000000000000     0.00000000000000     2.69952440464097
O     2.69952440464097     2.69952440464097     0.00000000000000
O     2.69952440464097     0.00000000000000     2.69952440464097
O    -0.00000000000000     2.69952440464097     2.69952440464097