CRYSTAL
# Primitive lattice vectors in Angstrom
PRIMVEC
 3.92009423570545 0.00000000000000 0.00000000000000
 -0.00000000000000 3.92009423570545 0.00000000000000
 0.00000000000000 0.00000000000000 3.92009423570545
# Cartesian coordinates in Angstrom.
PRIMCOORD
 4 1
Sb     0.00000000000000     0.00000000000000     0.00000000000000
O     1.96004711785272     0.00000000000000     0.00000000000000
O    -0.00000000000000     1.96004711785272     0.00000000000000
O     0.00000000000000     0.00000000000000     1.96004711785272