CRYSTAL
# Primitive lattice vectors in Angstrom
PRIMVEC
 5.22620352778499 0.00000000000000 0.00000000000000
 -0.00000000000000 5.22620352778499 0.00000000000000
 0.00000000000000 0.00000000000000 5.22620352778499
# Cartesian coordinates in Angstrom.
PRIMCOORD
 14 1
Sc     0.00000000000000     0.00000000000000     0.00000000000000
Sc     2.61310176389250     2.61310176389250     0.00000000000000
Sc     2.61310176389250     0.00000000000000     2.61310176389250
Sc    -0.00000000000000     2.61310176389250     2.61310176389250
O     2.61310176389250     0.00000000000000     0.00000000000000
O    -0.00000000000000     2.61310176389250     0.00000000000000
O     0.00000000000000     0.00000000000000     2.61310176389250
O     2.61310176389250     2.61310176389250     2.61310176389250
O     3.91965264583875     3.91965264583875     1.30655088194625
O     3.91965264583875     1.30655088194625     3.91965264583875
O     1.30655088194625     3.91965264583875     3.91965264583875
O     3.91965264583875     1.30655088194625     1.30655088194625
O     1.30655088194625     3.91965264583875     1.30655088194625
O     1.30655088194625     1.30655088194625     3.91965264583875