CRYSTAL
# Primitive lattice vectors in Angstrom
PRIMVEC
 3.11759289854211 0.00000000000000 1.79994309919695
 1.03919763284737 2.93929477271754 1.79994309919695
 0.00000000000000 0.00000000000000 3.59988619839391
# Cartesian coordinates in Angstrom.
PRIMCOORD
 3 1
Sc     0.00000000000000     0.00000000000000     0.00000000000000
O     1.03919763284737     0.73482369317938     1.79994309919695
O     3.11759289854211     2.20447107953815     5.39982929759086