CRYSTAL
# Primitive lattice vectors in Angstrom
PRIMVEC
 2.73742926770414 0.00000000000000 1.58045552459655
 0.91247642256805 2.58087306428283 1.58045552459655
 0.00000000000000 0.00000000000000 3.16091104919309
# Cartesian coordinates in Angstrom.
PRIMCOORD
 2 1
Sc     0.00000000000000     0.00000000000000     0.00000000000000
O     1.82495284513609     1.29043653214141     3.16091104919309