CRYSTAL
# Primitive lattice vectors in Angstrom
PRIMVEC
 4.13116144840151 0.00000000000000 0.00000000000000
 -0.00000000000000 4.13116144840151 0.00000000000000
 0.00000000000000 0.00000000000000 4.13116144840151
# Cartesian coordinates in Angstrom.
PRIMCOORD
 4 1
Sc     0.00000000000000     0.00000000000000     0.00000000000000
O     2.06558072420076     0.00000000000000     0.00000000000000
O    -0.00000000000000     2.06558072420076     0.00000000000000
O     0.00000000000000     0.00000000000000     2.06558072420076