CRYSTAL
# Primitive lattice vectors in Angstrom
PRIMVEC
 4.99243336364231 0.00000000000000 0.00000000000000
 -0.00000000000000 4.99243336364231 0.00000000000000
 0.00000000000000 0.00000000000000 4.99243336364231
# Cartesian coordinates in Angstrom.
PRIMCOORD
 10 1
Sc     1.24810834091058     1.24810834091058     1.24810834091058
Sc     3.74432502273173     3.74432502273173     1.24810834091058
Sc     3.74432502273173     1.24810834091058     3.74432502273173
Sc     1.24810834091058     3.74432502273173     3.74432502273173
O     2.49621668182115     0.00000000000000     0.00000000000000
O    -0.00000000000000     2.49621668182115     0.00000000000000
O     0.00000000000000     0.00000000000000     2.49621668182115
O     2.49621668182115     2.49621668182115     0.00000000000000
O     2.49621668182115     0.00000000000000     2.49621668182115
O    -0.00000000000000     2.49621668182115     2.49621668182115