CRYSTAL
# Primitive lattice vectors in Angstrom
PRIMVEC
 3.40871369420527 0.00000000000000 1.96802176893978
 1.13623789806842 3.21376609106133 1.96802176893978
 0.00000000000000 0.00000000000000 3.93604353787955
# Cartesian coordinates in Angstrom.
PRIMCOORD
 3 1
Sc     1.13623789806842     0.80344152276533     1.96802176893978
Sc     3.40871369420527     2.41032456829599     5.90406530681933
O     0.00000000000000     0.00000000000000     0.00000000000000