CRYSTAL
# Primitive lattice vectors in Angstrom
PRIMVEC
 3.68088333719878 0.00000000000000 0.00000000000000
 -0.00000000000000 3.68088333719878 0.00000000000000
 0.00000000000000 0.00000000000000 3.68088333719878
# Cartesian coordinates in Angstrom.
PRIMCOORD
 4 1
Se     0.00000000000000     0.00000000000000     0.00000000000000
O     1.84044166859939     0.00000000000000     0.00000000000000
O    -0.00000000000000     1.84044166859939     0.00000000000000
O     0.00000000000000     0.00000000000000     1.84044166859939