CRYSTAL
# Primitive lattice vectors in Angstrom
PRIMVEC
 3.57920349117782 0.00000000000000 2.06645409911597
 1.19306783039261 3.37450541314454 2.06645409911597
 0.00000000000000 0.00000000000000 4.13290819823193
# Cartesian coordinates in Angstrom.
PRIMCOORD
 3 1
Se     1.19306783039261     0.84362635328613     2.06645409911596
Se     3.57920349117782     2.53087905985840     6.19936229734789
O     0.00000000000000     0.00000000000000     0.00000000000000