CRYSTAL
# Primitive lattice vectors in Angstrom
PRIMVEC
 5.09532762669284 0.00000000000000 0.00000000000000
 -0.00000000000000 5.09532762669284 0.00000000000000
 0.00000000000000 0.00000000000000 5.09532762669284
# Cartesian coordinates in Angstrom.
PRIMCOORD
 10 1
Se     1.27383190667321     1.27383190667321     1.27383190667321
Se     3.82149572001963     3.82149572001963     1.27383190667321
Se     3.82149572001963     1.27383190667321     3.82149572001963
Se     1.27383190667321     3.82149572001963     3.82149572001963
O     2.54766381334642     0.00000000000000     0.00000000000000
O    -0.00000000000000     2.54766381334642     0.00000000000000
O     0.00000000000000     0.00000000000000     2.54766381334642
O     2.54766381334642     2.54766381334642     0.00000000000000
O     2.54766381334642     0.00000000000000     2.54766381334642
O    -0.00000000000000     2.54766381334642     2.54766381334642