CRYSTAL
# Primitive lattice vectors in Angstrom
PRIMVEC
 2.96414292553705 0.00000000000000 1.71134871597534
 0.98804764184568 2.79462075073784 1.71134871597534
 0.00000000000000 0.00000000000000 3.42269743195068
# Cartesian coordinates in Angstrom.
PRIMCOORD
 2 1
Se     0.00000000000000     0.00000000000000     0.00000000000000
O     1.97609528369137     1.39731037536892     3.42269743195068