CRYSTAL
# Primitive lattice vectors in Angstrom
PRIMVEC
 3.12032771133018 0.00000000000000 1.80152204409633
 1.04010923711006 2.94187317894116 1.80152204409633
 0.00000000000000 0.00000000000000 3.60304408819265
# Cartesian coordinates in Angstrom.
PRIMCOORD
 3 1
Se     0.00000000000000     0.00000000000000     0.00000000000000
O     1.04010923711006     0.73546829473529     1.80152204409633
O     3.12032771133018     2.20640488420587     5.40456613228898