CRYSTAL
# Primitive lattice vectors in Angstrom
PRIMVEC
 5.23986370074218 0.00000000000000 0.00000000000000
 -0.00000000000000 5.23986370074218 0.00000000000000
 0.00000000000000 0.00000000000000 5.23986370074218
# Cartesian coordinates in Angstrom.
PRIMCOORD
 14 1
Se     0.00000000000000     0.00000000000000     0.00000000000000
Se     2.61993185037109     2.61993185037109     0.00000000000000
Se     2.61993185037109     0.00000000000000     2.61993185037109
Se    -0.00000000000000     2.61993185037109     2.61993185037109
O     2.61993185037109     0.00000000000000     0.00000000000000
O    -0.00000000000000     2.61993185037109     0.00000000000000
O     0.00000000000000     0.00000000000000     2.61993185037109
O     2.61993185037109     2.61993185037109     2.61993185037109
O     3.92989777555663     3.92989777555663     1.30996592518555
O     3.92989777555663     1.30996592518554     3.92989777555663
O     1.30996592518554     3.92989777555663     3.92989777555663
O     3.92989777555663     1.30996592518554     1.30996592518555
O     1.30996592518554     3.92989777555663     1.30996592518555
O     1.30996592518554     1.30996592518554     3.92989777555663