CRYSTAL
# Primitive lattice vectors in Angstrom
PRIMVEC
 2.82693586308575 0.00000000000000 1.63213218153437
 0.94231195436192 2.66526069168984 1.63213218153437
 0.00000000000000 0.00000000000000 3.26426436306873
# Cartesian coordinates in Angstrom.
PRIMCOORD
 2 1
Si     0.00000000000000     0.00000000000000     0.00000000000000
O     1.88462390872383     1.33263034584492     3.26426436306873