CRYSTAL
# Primitive lattice vectors in Angstrom
PRIMVEC
 3.46986361677158 0.00000000000000 0.00000000000000
 -0.00000000000000 3.46986361677158 0.00000000000000
 0.00000000000000 0.00000000000000 3.46986361677158
# Cartesian coordinates in Angstrom.
PRIMCOORD
 4 1
Si     0.00000000000000     0.00000000000000     0.00000000000000
O     1.73493180838579     0.00000000000000     0.00000000000000
O    -0.00000000000000     1.73493180838579     0.00000000000000
O     0.00000000000000     0.00000000000000     1.73493180838579