CRYSTAL
# Primitive lattice vectors in Angstrom
PRIMVEC
 2.80604200203178 0.00000000000000 1.62006910523044
 0.93534733401059 2.64556177057459 1.62006910523044
 0.00000000000000 0.00000000000000 3.24013821046088
# Cartesian coordinates in Angstrom.
PRIMCOORD
 3 1
Si     0.00000000000000     0.00000000000000     0.00000000000000
O     0.93534733401059     0.66139044264365     1.62006910523044
O     2.80604200203178     1.98417132793094     4.86020731569133