CRYSTAL
# Primitive lattice vectors in Angstrom
PRIMVEC
 4.95986960794704 0.00000000000000 0.00000000000000
 -0.00000000000000 4.95986960794704 0.00000000000000
 0.00000000000000 0.00000000000000 4.95986960794704
# Cartesian coordinates in Angstrom.
PRIMCOORD
 14 1
Si     0.00000000000000     0.00000000000000     0.00000000000000
Si     2.47993480397352     2.47993480397352     0.00000000000000
Si     2.47993480397352     0.00000000000000     2.47993480397352
Si    -0.00000000000000     2.47993480397352     2.47993480397352
O     2.47993480397352     0.00000000000000     0.00000000000000
O    -0.00000000000000     2.47993480397352     0.00000000000000
O     0.00000000000000     0.00000000000000     2.47993480397352
O     2.47993480397352     2.47993480397352     2.47993480397352
O     3.71990220596028     3.71990220596028     1.23996740198676
O     3.71990220596028     1.23996740198676     3.71990220596028
O     1.23996740198676     3.71990220596028     3.71990220596028
O     3.71990220596028     1.23996740198676     1.23996740198676
O     1.23996740198676     3.71990220596028     1.23996740198676
O     1.23996740198676     1.23996740198676     3.71990220596028