CRYSTAL
# Primitive lattice vectors in Angstrom
PRIMVEC
 3.39738865274058 0.00000000000000 1.96148325320155
 1.13246288424686 3.20308873957212 1.96148325320155
 0.00000000000000 0.00000000000000 3.92296650640311
# Cartesian coordinates in Angstrom.
PRIMCOORD
 3 1
Si     1.13246288424686     0.80077218489303     1.96148325320155
Si     3.39738865274058     2.40231655467909     5.88444975960466
O     0.00000000000000     0.00000000000000     0.00000000000000