CRYSTAL
# Primitive lattice vectors in Angstrom
PRIMVEC
 4.60485263421848 0.00000000000000 0.00000000000000
 -0.00000000000000 4.60485263421848 0.00000000000000
 0.00000000000000 0.00000000000000 4.60485263421848
# Cartesian coordinates in Angstrom.
PRIMCOORD
 10 1
Si     1.15121315855462     1.15121315855462     1.15121315855462
Si     3.45363947566386     3.45363947566386     1.15121315855462
Si     3.45363947566386     1.15121315855462     3.45363947566386
Si     1.15121315855462     3.45363947566386     3.45363947566386
O     2.30242631710924     0.00000000000000     0.00000000000000
O    -0.00000000000000     2.30242631710924     0.00000000000000
O     0.00000000000000     0.00000000000000     2.30242631710924
O     2.30242631710924     2.30242631710924     0.00000000000000
O     2.30242631710924     0.00000000000000     2.30242631710924
O    -0.00000000000000     2.30242631710924     2.30242631710924