CRYSTAL
# Primitive lattice vectors in Angstrom
PRIMVEC
 5.39977700535304 0.00000000000000 0.00000000000000
 -0.00000000000000 5.39977700535304 0.00000000000000
 0.00000000000000 0.00000000000000 5.39977700535304
# Cartesian coordinates in Angstrom.
PRIMCOORD
 14 1
Sm     0.00000000000000     0.00000000000000     0.00000000000000
Sm     2.69988850267652     2.69988850267652     0.00000000000000
Sm     2.69988850267652     0.00000000000000     2.69988850267652
Sm    -0.00000000000000     2.69988850267652     2.69988850267652
O     2.69988850267652     0.00000000000000     0.00000000000000
O    -0.00000000000000     2.69988850267652     0.00000000000000
O     0.00000000000000     0.00000000000000     2.69988850267652
O     2.69988850267652     2.69988850267652     2.69988850267652
O     4.04983275401478     4.04983275401478     1.34994425133826
O     4.04983275401478     1.34994425133826     4.04983275401478
O     1.34994425133826     4.04983275401478     4.04983275401478
O     4.04983275401478     1.34994425133826     1.34994425133826
O     1.34994425133826     4.04983275401478     1.34994425133826
O     1.34994425133826     1.34994425133826     4.04983275401478