CRYSTAL
# Primitive lattice vectors in Angstrom
PRIMVEC
 3.57459944445929 0.00000000000000 2.06379595150366
 1.19153314815310 3.37016467627044 2.06379595150366
 0.00000000000000 0.00000000000000 4.12759190300732
# Cartesian coordinates in Angstrom.
PRIMCOORD
 3 1
Sm     1.19153314815310     0.84254116906761     2.06379595150366
Sm     3.57459944445929     2.52762350720283     6.19138785451098
O     0.00000000000000     0.00000000000000     0.00000000000000