CRYSTAL
# Primitive lattice vectors in Angstrom
PRIMVEC
 4.14634992923167 0.00000000000000 0.00000000000000
 -0.00000000000000 4.14634992923167 0.00000000000000
 0.00000000000000 0.00000000000000 4.14634992923167
# Cartesian coordinates in Angstrom.
PRIMCOORD
 4 1
Sm     0.00000000000000     0.00000000000000     0.00000000000000
O     2.07317496461583     0.00000000000000     0.00000000000000
O    -0.00000000000000     2.07317496461583     0.00000000000000
O     0.00000000000000     0.00000000000000     2.07317496461583