CRYSTAL
# Primitive lattice vectors in Angstrom
PRIMVEC
 3.27038125355004 0.00000000000000 1.88815549708982
 1.09012708451668 3.08334501526746 1.88815549708982
 0.00000000000000 0.00000000000000 3.77631099417965
# Cartesian coordinates in Angstrom.
PRIMCOORD
 3 1
Sm     0.00000000000000     0.00000000000000     0.00000000000000
O     1.09012708451668     0.77083625381687     1.88815549708982
O     3.27038125355004     2.31250876145060     5.66446649126947