CRYSTAL
# Primitive lattice vectors in Angstrom
PRIMVEC
 2.97663846778591 0.00000000000000 1.71856302065639
 0.99221282259530 2.80640166094953 1.71856302065639
 0.00000000000000 0.00000000000000 3.43712604131278
# Cartesian coordinates in Angstrom.
PRIMCOORD
 2 1
Sm     0.00000000000000     0.00000000000000     0.00000000000000
O     1.98442564519061     1.40320083047477     3.43712604131278