CRYSTAL
# Primitive lattice vectors in Angstrom
PRIMVEC
 5.35499110570401 0.00000000000000 0.00000000000000
 -0.00000000000000 5.35499110570401 0.00000000000000
 0.00000000000000 0.00000000000000 5.35499110570401
# Cartesian coordinates in Angstrom.
PRIMCOORD
 10 1
Sm     1.33874777642600     1.33874777642600     1.33874777642600
Sm     4.01624332927801     4.01624332927801     1.33874777642600
Sm     4.01624332927801     1.33874777642600     4.01624332927801
Sm     1.33874777642600     4.01624332927801     4.01624332927801
O     2.67749555285201     0.00000000000000     0.00000000000000
O    -0.00000000000000     2.67749555285201     0.00000000000000
O     0.00000000000000     0.00000000000000     2.67749555285201
O     2.67749555285201     2.67749555285201     0.00000000000000
O     2.67749555285201     0.00000000000000     2.67749555285201
O    -0.00000000000000     2.67749555285201     2.67749555285201