CRYSTAL
# Primitive lattice vectors in Angstrom
PRIMVEC
 3.87723416681935 0.00000000000000 2.23852218992437
 1.29241138893978 3.65549142880818 2.23852218992437
 0.00000000000000 0.00000000000000 4.47704437984873
# Cartesian coordinates in Angstrom.
PRIMCOORD
 3 1
Sn     1.29241138893978     0.91387285720205     2.23852218992437
Sn     3.87723416681935     2.74161857160614     6.71556656977310
O     0.00000000000000     0.00000000000000     0.00000000000000