CRYSTAL
# Primitive lattice vectors in Angstrom
PRIMVEC
 5.35495399811476 0.00000000000000 0.00000000000000
 -0.00000000000000 5.35495399811476 0.00000000000000
 0.00000000000000 0.00000000000000 5.35495399811476
# Cartesian coordinates in Angstrom.
PRIMCOORD
 14 1
Sn     0.00000000000000     0.00000000000000     0.00000000000000
Sn     2.67747699905738     2.67747699905738     0.00000000000000
Sn     2.67747699905738     0.00000000000000     2.67747699905738
Sn    -0.00000000000000     2.67747699905738     2.67747699905738
O     2.67747699905738     0.00000000000000     0.00000000000000
O    -0.00000000000000     2.67747699905738     0.00000000000000
O     0.00000000000000     0.00000000000000     2.67747699905738
O     2.67747699905738     2.67747699905738     2.67747699905738
O     4.01621549858607     4.01621549858607     1.33873849952869
O     4.01621549858607     1.33873849952869     4.01621549858607
O     1.33873849952869     4.01621549858607     4.01621549858607
O     4.01621549858607     1.33873849952869     1.33873849952869
O     1.33873849952869     4.01621549858607     1.33873849952869
O     1.33873849952869     1.33873849952869     4.01621549858607