CRYSTAL
# Primitive lattice vectors in Angstrom
PRIMVEC
 4.07488449576132 0.00000000000000 0.00000000000000
 -0.00000000000000 4.07488449576132 0.00000000000000
 0.00000000000000 0.00000000000000 4.07488449576132
# Cartesian coordinates in Angstrom.
PRIMCOORD
 4 1
Sn     0.00000000000000     0.00000000000000     0.00000000000000
O     2.03744224788066     0.00000000000000     0.00000000000000
O    -0.00000000000000     2.03744224788066     0.00000000000000
O     0.00000000000000     0.00000000000000     2.03744224788066