CRYSTAL
# Primitive lattice vectors in Angstrom
PRIMVEC
 3.13433484855638 0.00000000000000 1.80960906854445
 1.04477828285213 2.95507923456471 1.80960906854445
 0.00000000000000 0.00000000000000 3.61921813708891
# Cartesian coordinates in Angstrom.
PRIMCOORD
 2 1
Sn     0.00000000000000     0.00000000000000     0.00000000000000
O     2.08955656570426     1.47753961728235     3.61921813708891