CRYSTAL
# Primitive lattice vectors in Angstrom
PRIMVEC
 5.25355261261274 0.00000000000000 0.00000000000000
 -0.00000000000000 5.25355261261274 0.00000000000000
 0.00000000000000 0.00000000000000 5.25355261261274
# Cartesian coordinates in Angstrom.
PRIMCOORD
 10 1
Sn     1.31338815315318     1.31338815315318     1.31338815315318
Sn     3.94016445945955     3.94016445945955     1.31338815315318
Sn     3.94016445945955     1.31338815315318     3.94016445945955
Sn     1.31338815315318     3.94016445945955     3.94016445945955
O     2.62677630630637     0.00000000000000     0.00000000000000
O    -0.00000000000000     2.62677630630637     0.00000000000000
O     0.00000000000000     0.00000000000000     2.62677630630637
O     2.62677630630637     2.62677630630637     0.00000000000000
O     2.62677630630637     0.00000000000000     2.62677630630637
O    -0.00000000000000     2.62677630630637     2.62677630630637