CRYSTAL
# Primitive lattice vectors in Angstrom
PRIMVEC
 3.14936143406765 0.00000000000000 1.81828467173439
 1.04978714468922 2.96924643524884 1.81828467173439
 0.00000000000000 0.00000000000000 3.63656934346877
# Cartesian coordinates in Angstrom.
PRIMCOORD
 3 1
Sn     0.00000000000000     0.00000000000000     0.00000000000000
O     1.04978714468922     0.74231160881221     1.81828467173439
O     3.14936143406765     2.22693482643663     5.45485401520316