CRYSTAL
# Primitive lattice vectors in Angstrom
PRIMVEC
 5.80182610314975 0.00000000000000 0.00000000000000
 -0.00000000000000 5.80182610314975 0.00000000000000
 0.00000000000000 0.00000000000000 5.80182610314975
# Cartesian coordinates in Angstrom.
PRIMCOORD
 10 1
Sr     1.45045652578744     1.45045652578744     1.45045652578744
Sr     4.35136957736231     4.35136957736231     1.45045652578744
Sr     4.35136957736231     1.45045652578744     4.35136957736231
Sr     1.45045652578744     4.35136957736231     4.35136957736231
O     2.90091305157488     0.00000000000000     0.00000000000000
O    -0.00000000000000     2.90091305157488     0.00000000000000
O     0.00000000000000     0.00000000000000     2.90091305157488
O     2.90091305157488     2.90091305157488     0.00000000000000
O     2.90091305157488     0.00000000000000     2.90091305157488
O    -0.00000000000000     2.90091305157488     2.90091305157488