CRYSTAL
# Primitive lattice vectors in Angstrom
PRIMVEC
 4.84622378858383 0.00000000000000 0.00000000000000
 -0.00000000000000 4.84622378858383 0.00000000000000
 0.00000000000000 0.00000000000000 4.84622378858383
# Cartesian coordinates in Angstrom.
PRIMCOORD
 4 1
Sr     0.00000000000000     0.00000000000000     0.00000000000000
O     2.42311189429191     0.00000000000000     0.00000000000000
O    -0.00000000000000     2.42311189429191     0.00000000000000
O     0.00000000000000     0.00000000000000     2.42311189429191