CRYSTAL
# Primitive lattice vectors in Angstrom
PRIMVEC
 5.80443681993173 0.00000000000000 0.00000000000000
 -0.00000000000000 5.80443681993173 0.00000000000000
 0.00000000000000 0.00000000000000 5.80443681993173
# Cartesian coordinates in Angstrom.
PRIMCOORD
 14 1
Sr     0.00000000000000     0.00000000000000     0.00000000000000
Sr     2.90221840996586     2.90221840996586     0.00000000000000
Sr     2.90221840996586     0.00000000000000     2.90221840996586
Sr    -0.00000000000000     2.90221840996586     2.90221840996586
O     2.90221840996586     0.00000000000000     0.00000000000000
O    -0.00000000000000     2.90221840996586     0.00000000000000
O     0.00000000000000     0.00000000000000     2.90221840996586
O     2.90221840996586     2.90221840996586     2.90221840996586
O     4.35332761494879     4.35332761494879     1.45110920498293
O     4.35332761494879     1.45110920498293     4.35332761494879
O     1.45110920498293     4.35332761494879     4.35332761494879
O     4.35332761494879     1.45110920498293     1.45110920498293
O     1.45110920498293     4.35332761494879     1.45110920498293
O     1.45110920498293     1.45110920498293     4.35332761494879