CRYSTAL
# Primitive lattice vectors in Angstrom
PRIMVEC
 4.00917884695360 0.00000000000000 2.31470048651801
 1.33639294898453 3.77989006622740 2.31470048651801
 0.00000000000000 0.00000000000000 4.62940097303603
# Cartesian coordinates in Angstrom.
PRIMCOORD
 3 1
Sr     1.33639294898453     0.94497251655685     2.31470048651801
Sr     4.00917884695360     2.83491754967055     6.94410145955404
O     0.00000000000000     0.00000000000000     0.00000000000000