CRYSTAL
# Primitive lattice vectors in Angstrom
PRIMVEC
 3.61172959353562 0.00000000000000 2.08523305306793
 1.20390986451187 3.40517131653489 2.08523305306793
 0.00000000000000 0.00000000000000 4.17046610613586
# Cartesian coordinates in Angstrom.
PRIMCOORD
 3 1
Sr     0.00000000000000     0.00000000000000     0.00000000000000
O     1.20390986451187     0.85129282913372     2.08523305306793
O     3.61172959353562     2.55387848740117     6.25569915920379