CRYSTAL
# Primitive lattice vectors in Angstrom
PRIMVEC
 3.18143088136151 0.00000000000000 1.83679997576226
 1.06047696045384 2.99948180011602 1.83679997576226
 0.00000000000000 0.00000000000000 3.67359995152451
# Cartesian coordinates in Angstrom.
PRIMCOORD
 2 1
Sr     0.00000000000000     0.00000000000000     0.00000000000000
O     2.12095392090767     1.49974090005801     3.67359995152451