CRYSTAL
# Primitive lattice vectors in Angstrom
PRIMVEC
 3.06670313334045 0.00000000000000 1.77056187955878
 1.02223437778015 2.89131544196142 1.77056187955878
 0.00000000000000 0.00000000000000 3.54112375911756
# Cartesian coordinates in Angstrom.
PRIMCOORD
 3 1
Ta     0.00000000000000     0.00000000000000     0.00000000000000
O     1.02223437778015     0.72282886049036     1.77056187955878
O     3.06670313334045     2.16848658147107     5.31168563867634