CRYSTAL
# Primitive lattice vectors in Angstrom
PRIMVEC
 3.45817350945006 0.00000000000000 1.99657740658543
 1.15272450315002 3.26039725206909 1.99657740658543
 0.00000000000000 0.00000000000000 3.99315481317085
# Cartesian coordinates in Angstrom.
PRIMCOORD
 3 1
Ta     1.15272450315002     0.81509931301727     1.99657740658543
Ta     3.45817350945006     2.44529793905182     5.98973221975628
O     0.00000000000000     0.00000000000000     0.00000000000000