CRYSTAL
# Primitive lattice vectors in Angstrom
PRIMVEC
 5.08234682746305 0.00000000000000 0.00000000000000
 -0.00000000000000 5.08234682746305 0.00000000000000
 0.00000000000000 0.00000000000000 5.08234682746305
# Cartesian coordinates in Angstrom.
PRIMCOORD
 14 1
Ta     0.00000000000000     0.00000000000000     0.00000000000000
Ta     2.54117341373153     2.54117341373153     0.00000000000000
Ta     2.54117341373153     0.00000000000000     2.54117341373153
Ta    -0.00000000000000     2.54117341373153     2.54117341373153
O     2.54117341373153     0.00000000000000     0.00000000000000
O    -0.00000000000000     2.54117341373153     0.00000000000000
O     0.00000000000000     0.00000000000000     2.54117341373153
O     2.54117341373153     2.54117341373153     2.54117341373153
O     3.81176012059729     3.81176012059729     1.27058670686576
O     3.81176012059729     1.27058670686576     3.81176012059729
O     1.27058670686576     3.81176012059729     3.81176012059729
O     3.81176012059729     1.27058670686576     1.27058670686576
O     1.27058670686576     3.81176012059729     1.27058670686576
O     1.27058670686576     1.27058670686576     3.81176012059729