CRYSTAL
# Primitive lattice vectors in Angstrom
PRIMVEC
 4.93147759936327 0.00000000000000 0.00000000000000
 -0.00000000000000 4.93147759936327 0.00000000000000
 0.00000000000000 0.00000000000000 4.93147759936327
# Cartesian coordinates in Angstrom.
PRIMCOORD
 10 1
Ta     1.23286939984082     1.23286939984082     1.23286939984082
Ta     3.69860819952245     3.69860819952245     1.23286939984082
Ta     3.69860819952245     1.23286939984082     3.69860819952245
Ta     1.23286939984082     3.69860819952245     3.69860819952245
O     2.46573879968163     0.00000000000000     0.00000000000000
O    -0.00000000000000     2.46573879968163     0.00000000000000
O     0.00000000000000     0.00000000000000     2.46573879968163
O     2.46573879968163     2.46573879968163     0.00000000000000
O     2.46573879968163     0.00000000000000     2.46573879968163
O    -0.00000000000000     2.46573879968163     2.46573879968163