CRYSTAL
# Primitive lattice vectors in Angstrom
PRIMVEC
 3.95256888746815 0.00000000000000 0.00000000000000
 -0.00000000000000 3.95256888746815 0.00000000000000
 0.00000000000000 0.00000000000000 3.95256888746815
# Cartesian coordinates in Angstrom.
PRIMCOORD
 4 1
Ta     0.00000000000000     0.00000000000000     0.00000000000000
O     1.97628444373408     0.00000000000000     0.00000000000000
O    -0.00000000000000     1.97628444373408     0.00000000000000
O     0.00000000000000     0.00000000000000     1.97628444373408