CRYSTAL
# Primitive lattice vectors in Angstrom
PRIMVEC
 2.75881373884722 0.00000000000000 1.59280185476748
 0.91960457961574 2.60103453702598 1.59280185476748
 0.00000000000000 0.00000000000000 3.18560370953496
# Cartesian coordinates in Angstrom.
PRIMCOORD
 2 1
Ta     0.00000000000000     0.00000000000000     0.00000000000000
O     1.83920915923148     1.30051726851299     3.18560370953496