CRYSTAL
# Primitive lattice vectors in Angstrom
PRIMVEC
 2.96085806620309 0.00000000000000 1.70945220155463
 0.98695268873436 2.79152375565746 1.70945220155463
 0.00000000000000 0.00000000000000 3.41890440310926
# Cartesian coordinates in Angstrom.
PRIMCOORD
 2 1
Tb     0.00000000000000     0.00000000000000     0.00000000000000
O     1.97390537746873     1.39576187782873     3.41890440310926