CRYSTAL
# Primitive lattice vectors in Angstrom
PRIMVEC
 4.14747841525452 0.00000000000000 0.00000000000000
 -0.00000000000000 4.14747841525452 0.00000000000000
 0.00000000000000 0.00000000000000 4.14747841525452
# Cartesian coordinates in Angstrom.
PRIMCOORD
 4 1
Tb     0.00000000000000     0.00000000000000     0.00000000000000
O     2.07373920762726     0.00000000000000     0.00000000000000
O    -0.00000000000000     2.07373920762726     0.00000000000000
O     0.00000000000000     0.00000000000000     2.07373920762726