CRYSTAL
# Primitive lattice vectors in Angstrom
PRIMVEC
 3.24212702776431 0.00000000000000 1.87184291222668
 1.08070900925477 3.05670667573377 1.87184291222668
 0.00000000000000 0.00000000000000 3.74368582445337
# Cartesian coordinates in Angstrom.
PRIMCOORD
 3 1
Tb     0.00000000000000     0.00000000000000     0.00000000000000
O     1.08070900925477     0.76417666893344     1.87184291222668
O     3.24212702776431     2.29253000680033     5.61552873668005