CRYSTAL
# Primitive lattice vectors in Angstrom
PRIMVEC
 5.30948213274441 0.00000000000000 0.00000000000000
 -0.00000000000000 5.30948213274441 0.00000000000000
 0.00000000000000 0.00000000000000 5.30948213274441
# Cartesian coordinates in Angstrom.
PRIMCOORD
 10 1
Tb     1.32737053318610     1.32737053318610     1.32737053318610
Tb     3.98211159955831     3.98211159955831     1.32737053318610
Tb     3.98211159955831     1.32737053318610     3.98211159955831
Tb     1.32737053318610     3.98211159955831     3.98211159955831
O     2.65474106637221     0.00000000000000     0.00000000000000
O    -0.00000000000000     2.65474106637221     0.00000000000000
O     0.00000000000000     0.00000000000000     2.65474106637221
O     2.65474106637221     2.65474106637221     0.00000000000000
O     2.65474106637221     0.00000000000000     2.65474106637221
O    -0.00000000000000     2.65474106637221     2.65474106637221