CRYSTAL
# Primitive lattice vectors in Angstrom
PRIMVEC
 3.60562163488525 0.00000000000000 2.08170662149694
 1.20187387829509 3.39941267789372 2.08170662149694
 0.00000000000000 0.00000000000000 4.16341324299388
# Cartesian coordinates in Angstrom.
PRIMCOORD
 3 1
Tb     1.20187387829509     0.84985316947343     2.08170662149694
Tb     3.60562163488525     2.54955950842029     6.24511986449082
O     0.00000000000000     0.00000000000000     0.00000000000000