CRYSTAL
# Primitive lattice vectors in Angstrom
PRIMVEC
 5.37880724547281 0.00000000000000 0.00000000000000
 -0.00000000000000 5.37880724547281 0.00000000000000
 0.00000000000000 0.00000000000000 5.37880724547281
# Cartesian coordinates in Angstrom.
PRIMCOORD
 14 1
Tb     0.00000000000000     0.00000000000000     0.00000000000000
Tb     2.68940362273641     2.68940362273641     0.00000000000000
Tb     2.68940362273641     0.00000000000000     2.68940362273641
Tb    -0.00000000000000     2.68940362273641     2.68940362273641
O     2.68940362273641     0.00000000000000     0.00000000000000
O    -0.00000000000000     2.68940362273641     0.00000000000000
O     0.00000000000000     0.00000000000000     2.68940362273641
O     2.68940362273641     2.68940362273641     2.68940362273641
O     4.03410543410461     4.03410543410461     1.34470181136820
O     4.03410543410461     1.34470181136820     4.03410543410461
O     1.34470181136820     4.03410543410461     4.03410543410461
O     4.03410543410461     1.34470181136820     1.34470181136820
O     1.34470181136820     4.03410543410461     1.34470181136820
O     1.34470181136820     1.34470181136820     4.03410543410461