CRYSTAL
# Primitive lattice vectors in Angstrom
PRIMVEC
 4.99447548487646 0.00000000000000 0.00000000000000
 -0.00000000000000 4.99447548487646 0.00000000000000
 0.00000000000000 0.00000000000000 4.99447548487646
# Cartesian coordinates in Angstrom.
PRIMCOORD
 14 1
Tc     0.00000000000000     0.00000000000000     0.00000000000000
Tc     2.49723774243823     2.49723774243823     0.00000000000000
Tc     2.49723774243823     0.00000000000000     2.49723774243823
Tc    -0.00000000000000     2.49723774243823     2.49723774243823
O     2.49723774243823     0.00000000000000     0.00000000000000
O    -0.00000000000000     2.49723774243823     0.00000000000000
O     0.00000000000000     0.00000000000000     2.49723774243823
O     2.49723774243823     2.49723774243823     2.49723774243823
O     3.74585661365734     3.74585661365735     1.24861887121912
O     3.74585661365735     1.24861887121912     3.74585661365735
O     1.24861887121911     3.74585661365735     3.74585661365735
O     3.74585661365735     1.24861887121912     1.24861887121912
O     1.24861887121911     3.74585661365735     1.24861887121912
O     1.24861887121912     1.24861887121912     3.74585661365735