CRYSTAL
# Primitive lattice vectors in Angstrom
PRIMVEC
 3.27847664701086 0.00000000000000 1.89282937468362
 1.09282554900362 3.09097742541749 1.89282937468362
 0.00000000000000 0.00000000000000 3.78565874936725
# Cartesian coordinates in Angstrom.
PRIMCOORD
 3 1
Tc     1.09282554900362     0.77274435635437     1.89282937468362
Tc     3.27847664701086     2.31823306906312     5.67848812405087
O     0.00000000000000     0.00000000000000     0.00000000000000