CRYSTAL
# Primitive lattice vectors in Angstrom
PRIMVEC
 2.97690869904746 0.00000000000000 1.71871903874799
 0.99230289968249 2.80665643742624 1.71871903874799
 0.00000000000000 0.00000000000000 3.43743807749598
# Cartesian coordinates in Angstrom.
PRIMCOORD
 3 1
Tc     0.00000000000000     0.00000000000000     0.00000000000000
O     0.99230289968249     0.70166410935656     1.71871903874799
O     2.97690869904746     2.10499232806968     5.15615711624397