CRYSTAL
# Primitive lattice vectors in Angstrom
PRIMVEC
 2.69092679082996 0.00000000000000 1.55360730705525
 0.89697559694332 2.53703010862989 1.55360730705525
 0.00000000000000 0.00000000000000 3.10721461411051
# Cartesian coordinates in Angstrom.
PRIMCOORD
 2 1
Tc     0.00000000000000     0.00000000000000     0.00000000000000
O     1.79395119388664     1.26851505431495     3.10721461411051