CRYSTAL
# Primitive lattice vectors in Angstrom
PRIMVEC
 4.77987613521475 0.00000000000000 0.00000000000000
 -0.00000000000000 4.77987613521475 0.00000000000000
 0.00000000000000 0.00000000000000 4.77987613521475
# Cartesian coordinates in Angstrom.
PRIMCOORD
 10 1
Tc     1.19496903380369     1.19496903380369     1.19496903380369
Tc     3.58490710141106     3.58490710141106     1.19496903380369
Tc     3.58490710141106     1.19496903380369     3.58490710141106
Tc     1.19496903380369     3.58490710141106     3.58490710141106
O     2.38993806760737     0.00000000000000     0.00000000000000
O    -0.00000000000000     2.38993806760737     0.00000000000000
O     0.00000000000000     0.00000000000000     2.38993806760737
O     2.38993806760737     2.38993806760737     0.00000000000000
O     2.38993806760737     0.00000000000000     2.38993806760737
O    -0.00000000000000     2.38993806760737     2.38993806760737