CRYSTAL
# Primitive lattice vectors in Angstrom
PRIMVEC
 3.75914790522326 0.00000000000000 0.00000000000000
 -0.00000000000000 3.75914790522326 0.00000000000000
 0.00000000000000 0.00000000000000 3.75914790522326
# Cartesian coordinates in Angstrom.
PRIMCOORD
 4 1
Tc     0.00000000000000     0.00000000000000     0.00000000000000
O     1.87957395261163     0.00000000000000     0.00000000000000
O    -0.00000000000000     1.87957395261163     0.00000000000000
O     0.00000000000000     0.00000000000000     1.87957395261163