CRYSTAL
# Primitive lattice vectors in Angstrom
PRIMVEC
 3.84663788644824 0.00000000000000 0.00000000000000
 -0.00000000000000 3.84663788644824 0.00000000000000
 0.00000000000000 0.00000000000000 3.84663788644824
# Cartesian coordinates in Angstrom.
PRIMCOORD
 4 1
Te     0.00000000000000     0.00000000000000     0.00000000000000
O     1.92331894322412     0.00000000000000     0.00000000000000
O    -0.00000000000000     1.92331894322412     0.00000000000000
O     0.00000000000000     0.00000000000000     1.92331894322412