CRYSTAL
# Primitive lattice vectors in Angstrom
PRIMVEC
 3.86578937544828 0.00000000000000 2.23191453654546
 1.28859645848276 3.64470117602452 2.23191453654546
 0.00000000000000 0.00000000000000 4.46382907309092
# Cartesian coordinates in Angstrom.
PRIMCOORD
 3 1
Te     1.28859645848276     0.91117529400613     2.23191453654546
Te     3.86578937544828     2.73352588201839     6.69574360963638
O     0.00000000000000     0.00000000000000     0.00000000000000