CRYSTAL
# Primitive lattice vectors in Angstrom
PRIMVEC
 5.42332181645517 0.00000000000000 0.00000000000000
 -0.00000000000000 5.42332181645517 0.00000000000000
 0.00000000000000 0.00000000000000 5.42332181645517
# Cartesian coordinates in Angstrom.
PRIMCOORD
 14 1
Te     0.00000000000000     0.00000000000000     0.00000000000000
Te     2.71166090822759     2.71166090822759     0.00000000000000
Te     2.71166090822759     0.00000000000000     2.71166090822759
Te    -0.00000000000000     2.71166090822759     2.71166090822759
O     2.71166090822759     0.00000000000000     0.00000000000000
O    -0.00000000000000     2.71166090822759     0.00000000000000
O     0.00000000000000     0.00000000000000     2.71166090822759
O     2.71166090822759     2.71166090822759     2.71166090822759
O     4.06749136234138     4.06749136234138     1.35583045411379
O     4.06749136234138     1.35583045411379     4.06749136234138
O     1.35583045411379     4.06749136234138     4.06749136234138
O     4.06749136234138     1.35583045411379     1.35583045411379
O     1.35583045411379     4.06749136234138     1.35583045411379
O     1.35583045411379     1.35583045411379     4.06749136234138