CRYSTAL
# Primitive lattice vectors in Angstrom
PRIMVEC
 3.17645487252967 0.00000000000000 1.83392707572370
 1.05881829084322 2.99479037399837 1.83392707572370
 0.00000000000000 0.00000000000000 3.66785415144740
# Cartesian coordinates in Angstrom.
PRIMCOORD
 2 1
Te     0.00000000000000     0.00000000000000     0.00000000000000
O     2.11763658168645     1.49739518699919     3.66785415144741