CRYSTAL
# Primitive lattice vectors in Angstrom
PRIMVEC
 5.39967478820304 0.00000000000000 0.00000000000000
 -0.00000000000000 5.39967478820304 0.00000000000000
 0.00000000000000 0.00000000000000 5.39967478820304
# Cartesian coordinates in Angstrom.
PRIMCOORD
 10 1
Te     1.34991869705076     1.34991869705076     1.34991869705076
Te     4.04975609115228     4.04975609115228     1.34991869705076
Te     4.04975609115228     1.34991869705076     4.04975609115228
Te     1.34991869705076     4.04975609115228     4.04975609115228
O     2.69983739410152     0.00000000000000     0.00000000000000
O    -0.00000000000000     2.69983739410152     0.00000000000000
O     0.00000000000000     0.00000000000000     2.69983739410152
O     2.69983739410152     2.69983739410152     0.00000000000000
O     2.69983739410152     0.00000000000000     2.69983739410152
O    -0.00000000000000     2.69983739410152     2.69983739410152