CRYSTAL
# Primitive lattice vectors in Angstrom
PRIMVEC
 3.29825767635287 0.00000000000000 1.90424995729908
 1.09941922545096 3.10962715873293 1.90424995729908
 0.00000000000000 0.00000000000000 3.80849991459816
# Cartesian coordinates in Angstrom.
PRIMCOORD
 3 1
Te     0.00000000000000     0.00000000000000     0.00000000000000
O     1.09941922545096     0.77740678968323     1.90424995729908
O     3.29825767635287     2.33222036904970     5.71274987189724