CRYSTAL
# Primitive lattice vectors in Angstrom
PRIMVEC
 4.39624452687338 0.00000000000000 0.00000000000000
 -0.00000000000000 4.39624452687338 0.00000000000000
 0.00000000000000 0.00000000000000 4.39624452687338
# Cartesian coordinates in Angstrom.
PRIMCOORD
 4 1
Th     0.00000000000000     0.00000000000000     0.00000000000000
O     2.19812226343669     0.00000000000000     0.00000000000000
O    -0.00000000000000     2.19812226343669     0.00000000000000
O     0.00000000000000     0.00000000000000     2.19812226343669