CRYSTAL
# Primitive lattice vectors in Angstrom
PRIMVEC
 3.98304712256807 0.00000000000000 2.29961332840964
 1.32768237418936 3.75525284020460 2.29961332840964
 0.00000000000000 0.00000000000000 4.59922665681928
# Cartesian coordinates in Angstrom.
PRIMCOORD
 3 1
Th     1.32768237418936     0.93881321005115     2.29961332840964
Th     3.98304712256807     2.81643963015345     6.89883998522892
O     0.00000000000000     0.00000000000000     0.00000000000000