CRYSTAL
# Primitive lattice vectors in Angstrom
PRIMVEC
 5.59299461567181 0.00000000000000 0.00000000000000
 -0.00000000000000 5.59299461567181 0.00000000000000
 0.00000000000000 0.00000000000000 5.59299461567181
# Cartesian coordinates in Angstrom.
PRIMCOORD
 10 1
Th     1.39824865391795     1.39824865391795     1.39824865391795
Th     4.19474596175386     4.19474596175386     1.39824865391795
Th     4.19474596175386     1.39824865391795     4.19474596175386
Th     1.39824865391795     4.19474596175386     4.19474596175386
O     2.79649730783591     0.00000000000000     0.00000000000000
O    -0.00000000000000     2.79649730783591     0.00000000000000
O     0.00000000000000     0.00000000000000     2.79649730783591
O     2.79649730783591     2.79649730783591     0.00000000000000
O     2.79649730783591     0.00000000000000     2.79649730783591
O    -0.00000000000000     2.79649730783591     2.79649730783591