CRYSTAL
# Primitive lattice vectors in Angstrom
PRIMVEC
 3.12245318402274 0.00000000000000 1.80274918632754
 1.04081772800758 2.94387709381334 1.80274918632754
 0.00000000000000 0.00000000000000 3.60549837265507
# Cartesian coordinates in Angstrom.
PRIMCOORD
 2 1
Th     0.00000000000000     0.00000000000000     0.00000000000000
O     2.08163545601516     1.47193854690667     3.60549837265507