CRYSTAL
# Primitive lattice vectors in Angstrom
PRIMVEC
 5.62744058607794 0.00000000000000 0.00000000000000
 -0.00000000000000 5.62744058607794 0.00000000000000
 0.00000000000000 0.00000000000000 5.62744058607794
# Cartesian coordinates in Angstrom.
PRIMCOORD
 14 1
Th     0.00000000000000     0.00000000000000     0.00000000000000
Th     2.81372029303897     2.81372029303897     0.00000000000000
Th     2.81372029303897     0.00000000000000     2.81372029303897
Th    -0.00000000000000     2.81372029303897     2.81372029303897
O     2.81372029303897     0.00000000000000     0.00000000000000
O    -0.00000000000000     2.81372029303897     0.00000000000000
O     0.00000000000000     0.00000000000000     2.81372029303897
O     2.81372029303897     2.81372029303897     2.81372029303897
O     4.22058043955845     4.22058043955845     1.40686014651948
O     4.22058043955845     1.40686014651948     4.22058043955845
O     1.40686014651948     4.22058043955845     4.22058043955845
O     4.22058043955845     1.40686014651948     1.40686014651948
O     1.40686014651948     4.22058043955845     1.40686014651948
O     1.40686014651948     1.40686014651948     4.22058043955845