CRYSTAL
# Primitive lattice vectors in Angstrom
PRIMVEC
 3.44010367560592 0.00000000000000 1.98614478315130
 1.14670122520197 3.24336084934095 1.98614478315130
 0.00000000000000 0.00000000000000 3.97228956630259
# Cartesian coordinates in Angstrom.
PRIMCOORD
 3 1
Th     0.00000000000000     0.00000000000000     0.00000000000000
O     1.14670122520197     0.81084021233524     1.98614478315130
O     3.44010367560592     2.43252063700571     5.95843434945389