CRYSTAL
# Primitive lattice vectors in Angstrom
PRIMVEC
 2.62165635431689 0.00000000000000 1.51361400188755
 0.87388545143896 2.47172131477103 1.51361400188755
 0.00000000000000 0.00000000000000 3.02722800377510
# Cartesian coordinates in Angstrom.
PRIMCOORD
 2 1
Ti     0.00000000000000     0.00000000000000     0.00000000000000
O     1.74777090287792     1.23586065738552     3.02722800377510