CRYSTAL
# Primitive lattice vectors in Angstrom
PRIMVEC
 4.76984296197439 0.00000000000000 0.00000000000000
 -0.00000000000000 4.76984296197439 0.00000000000000
 0.00000000000000 0.00000000000000 4.76984296197439
# Cartesian coordinates in Angstrom.
PRIMCOORD
 10 1
Ti     1.19246074049360     1.19246074049360     1.19246074049360
Ti     3.57738222148079     3.57738222148079     1.19246074049360
Ti     3.57738222148079     1.19246074049360     3.57738222148079
Ti     1.19246074049360     3.57738222148079     3.57738222148079
O     2.38492148098719     0.00000000000000     0.00000000000000
O    -0.00000000000000     2.38492148098719     0.00000000000000
O     0.00000000000000     0.00000000000000     2.38492148098719
O     2.38492148098719     2.38492148098719     0.00000000000000
O     2.38492148098719     0.00000000000000     2.38492148098719
O    -0.00000000000000     2.38492148098719     2.38492148098719