CRYSTAL
# Primitive lattice vectors in Angstrom
PRIMVEC
 5.03257515431121 0.00000000000000 0.00000000000000
 -0.00000000000000 5.03257515431121 0.00000000000000
 0.00000000000000 0.00000000000000 5.03257515431121
# Cartesian coordinates in Angstrom.
PRIMCOORD
 14 1
Ti     0.00000000000000     0.00000000000000     0.00000000000000
Ti     2.51628757715561     2.51628757715561     0.00000000000000
Ti     2.51628757715561     0.00000000000000     2.51628757715561
Ti    -0.00000000000000     2.51628757715561     2.51628757715561
O     2.51628757715561     0.00000000000000     0.00000000000000
O    -0.00000000000000     2.51628757715561     0.00000000000000
O     0.00000000000000     0.00000000000000     2.51628757715561
O     2.51628757715561     2.51628757715561     2.51628757715561
O     3.77443136573341     3.77443136573341     1.25814378857780
O     3.77443136573341     1.25814378857780     3.77443136573341
O     1.25814378857780     3.77443136573341     3.77443136573341
O     3.77443136573341     1.25814378857780     1.25814378857780
O     1.25814378857780     3.77443136573341     1.25814378857780
O     1.25814378857780     1.25814378857780     3.77443136573341