CRYSTAL
# Primitive lattice vectors in Angstrom
PRIMVEC
 2.95808983504528 0.00000000000000 1.70785396255049
 0.98602994501509 2.78891384229268 1.70785396255049
 0.00000000000000 0.00000000000000 3.41570792510098
# Cartesian coordinates in Angstrom.
PRIMCOORD
 3 1
Ti     0.00000000000000     0.00000000000000     0.00000000000000
O     0.98602994501509     0.69722846057317     1.70785396255049
O     2.95808983504528     2.09168538171951     5.12356188765147