CRYSTAL
# Primitive lattice vectors in Angstrom
PRIMVEC
 3.85654063400777 0.00000000000000 0.00000000000000
 -0.00000000000000 3.85654063400777 0.00000000000000
 0.00000000000000 0.00000000000000 3.85654063400777
# Cartesian coordinates in Angstrom.
PRIMCOORD
 4 1
Ti     0.00000000000000     0.00000000000000     0.00000000000000
O     1.92827031700389     0.00000000000000     0.00000000000000
O    -0.00000000000000     1.92827031700389     0.00000000000000
O     0.00000000000000     0.00000000000000     1.92827031700389