CRYSTAL
# Primitive lattice vectors in Angstrom
PRIMVEC
 3.21911243758035 0.00000000000000 1.85855543238869
 1.07303747919345 3.03500831202002 1.85855543238869
 0.00000000000000 0.00000000000000 3.71711086477737
# Cartesian coordinates in Angstrom.
PRIMCOORD
 3 1
Ti     1.07303747919345     0.75875207800501     1.85855543238869
Ti     3.21911243758035     2.27625623401502     5.57566629716606
O     0.00000000000000     0.00000000000000     0.00000000000000