CRYSTAL
# Primitive lattice vectors in Angstrom
PRIMVEC
 4.29108296049458 0.00000000000000 0.00000000000000
 -0.00000000000000 4.29108296049458 0.00000000000000
 0.00000000000000 0.00000000000000 4.29108296049458
# Cartesian coordinates in Angstrom.
PRIMCOORD
 4 1
Tl     0.00000000000000     0.00000000000000     0.00000000000000
O     2.14554148024729     0.00000000000000     0.00000000000000
O    -0.00000000000000     2.14554148024729     0.00000000000000
O     0.00000000000000     0.00000000000000     2.14554148024729