CRYSTAL
# Primitive lattice vectors in Angstrom
PRIMVEC
 5.56171217570112 0.00000000000000 0.00000000000000
 -0.00000000000000 5.56171217570112 0.00000000000000
 0.00000000000000 0.00000000000000 5.56171217570112
# Cartesian coordinates in Angstrom.
PRIMCOORD
 14 1
Tl     0.00000000000000     0.00000000000000     0.00000000000000
Tl     2.78085608785056     2.78085608785056     0.00000000000000
Tl     2.78085608785056     0.00000000000000     2.78085608785056
Tl    -0.00000000000000     2.78085608785056     2.78085608785056
O     2.78085608785056     0.00000000000000     0.00000000000000
O    -0.00000000000000     2.78085608785056     0.00000000000000
O     0.00000000000000     0.00000000000000     2.78085608785056
O     2.78085608785056     2.78085608785056     2.78085608785056
O     4.17128413177584     4.17128413177584     1.39042804392528
O     4.17128413177584     1.39042804392528     4.17128413177584
O     1.39042804392528     4.17128413177584     4.17128413177584
O     4.17128413177584     1.39042804392528     1.39042804392528
O     1.39042804392528     4.17128413177584     1.39042804392528
O     1.39042804392528     1.39042804392528     4.17128413177584