CRYSTAL
# Primitive lattice vectors in Angstrom
PRIMVEC
 4.04856672036271 0.00000000000000 2.33744108583357
 1.34952224012090 3.81702530940621 2.33744108583357
 0.00000000000000 0.00000000000000 4.67488217166715
# Cartesian coordinates in Angstrom.
PRIMCOORD
 3 1
Tl     1.34952224012090     0.95425632735155     2.33744108583357
Tl     4.04856672036271     2.86276898205466     7.01232325750072
O     0.00000000000000     0.00000000000000     0.00000000000000