CRYSTAL
# Primitive lattice vectors in Angstrom
PRIMVEC
 3.14802568498886 0.00000000000000 1.81751347664417
 1.04934189499629 2.96798707894006 1.81751347664417
 0.00000000000000 0.00000000000000 3.63502695328835
# Cartesian coordinates in Angstrom.
PRIMCOORD
 2 1
Tl     0.00000000000000     0.00000000000000     0.00000000000000
O     2.09868378999257     1.48399353947003     3.63502695328835