CRYSTAL
# Primitive lattice vectors in Angstrom
PRIMVEC
 5.42174732722924 0.00000000000000 0.00000000000000
 -0.00000000000000 5.42174732722924 0.00000000000000
 0.00000000000000 0.00000000000000 5.42174732722924
# Cartesian coordinates in Angstrom.
PRIMCOORD
 10 1
Tl     1.35543683180731     1.35543683180731     1.35543683180731
Tl     4.06631049542193     4.06631049542193     1.35543683180731
Tl     4.06631049542193     1.35543683180731     4.06631049542193
Tl     1.35543683180731     4.06631049542193     4.06631049542193
O     2.71087366361462     0.00000000000000     0.00000000000000
O    -0.00000000000000     2.71087366361462     0.00000000000000
O     0.00000000000000     0.00000000000000     2.71087366361462
O     2.71087366361462     2.71087366361462     0.00000000000000
O     2.71087366361462     0.00000000000000     2.71087366361462
O    -0.00000000000000     2.71087366361462     2.71087366361462