CRYSTAL
# Primitive lattice vectors in Angstrom
PRIMVEC
 3.34455077133755 0.00000000000000 1.93097728815010
 1.11485025711252 3.15327270724730 1.93097728815010
 0.00000000000000 0.00000000000000 3.86195457630021
# Cartesian coordinates in Angstrom.
PRIMCOORD
 3 1
Tl     0.00000000000000     0.00000000000000     0.00000000000000
O     1.11485025711252     0.78831817681183     1.93097728815010
O     3.34455077133755     2.36495453043548     5.79293186445031