CRYSTAL
# Primitive lattice vectors in Angstrom
PRIMVEC
 4.20283988504178 0.00000000000000 0.00000000000000
 -0.00000000000000 4.20283988504178 0.00000000000000
 0.00000000000000 0.00000000000000 4.20283988504178
# Cartesian coordinates in Angstrom.
PRIMCOORD
 4 1
Tm     0.00000000000000     0.00000000000000     0.00000000000000
O     2.10141994252089     0.00000000000000     0.00000000000000
O    -0.00000000000000     2.10141994252089     0.00000000000000
O     0.00000000000000     0.00000000000000     2.10141994252089