CRYSTAL
# Primitive lattice vectors in Angstrom
PRIMVEC
 5.39360612177631 0.00000000000000 0.00000000000000
 -0.00000000000000 5.39360612177631 0.00000000000000
 0.00000000000000 0.00000000000000 5.39360612177631
# Cartesian coordinates in Angstrom.
PRIMCOORD
 14 1
Tm     0.00000000000000     0.00000000000000     0.00000000000000
Tm     2.69680306088816     2.69680306088816     0.00000000000000
Tm     2.69680306088816     0.00000000000000     2.69680306088816
Tm    -0.00000000000000     2.69680306088816     2.69680306088816
O     2.69680306088816     0.00000000000000     0.00000000000000
O    -0.00000000000000     2.69680306088816     0.00000000000000
O     0.00000000000000     0.00000000000000     2.69680306088816
O     2.69680306088816     2.69680306088816     2.69680306088816
O     4.04520459133223     4.04520459133223     1.34840153044408
O     4.04520459133223     1.34840153044408     4.04520459133223
O     1.34840153044408     4.04520459133223     4.04520459133223
O     4.04520459133223     1.34840153044408     1.34840153044408
O     1.34840153044408     4.04520459133223     1.34840153044408
O     1.34840153044408     1.34840153044408     4.04520459133223