CRYSTAL
# Primitive lattice vectors in Angstrom
PRIMVEC
 3.70000657529889 0.00000000000000 2.13619979225220
 1.23333552509963 3.48839965310488 2.13619979225220
 0.00000000000000 0.00000000000000 4.27239958450440
# Cartesian coordinates in Angstrom.
PRIMCOORD
 3 1
Tm     1.23333552509963     0.87209991327622     2.13619979225220
Tm     3.70000657529889     2.61629973982866     6.40859937675660
O     0.00000000000000     0.00000000000000     0.00000000000000