CRYSTAL
# Primitive lattice vectors in Angstrom
PRIMVEC
 3.23999010960222 0.00000000000000 1.87060916195056
 1.07999670320074 3.05469196996943 1.87060916195056
 0.00000000000000 0.00000000000000 3.74121832390113
# Cartesian coordinates in Angstrom.
PRIMCOORD
 3 1
Tm     0.00000000000000     0.00000000000000     0.00000000000000
O     1.07999670320074     0.76367299249236     1.87060916195056
O     3.23999010960222     2.29101897747707     5.61182748585169