CRYSTAL
# Primitive lattice vectors in Angstrom
PRIMVEC
 5.28202939860831 0.00000000000000 0.00000000000000
 -0.00000000000000 5.28202939860831 0.00000000000000
 0.00000000000000 0.00000000000000 5.28202939860831
# Cartesian coordinates in Angstrom.
PRIMCOORD
 10 1
Tm     1.32050734965208     1.32050734965208     1.32050734965208
Tm     3.96152204895624     3.96152204895624     1.32050734965208
Tm     3.96152204895624     1.32050734965208     3.96152204895624
Tm     1.32050734965208     3.96152204895624     3.96152204895624
O     2.64101469930416     0.00000000000000     0.00000000000000
O    -0.00000000000000     2.64101469930416     0.00000000000000
O     0.00000000000000     0.00000000000000     2.64101469930416
O     2.64101469930416     2.64101469930416     0.00000000000000
O     2.64101469930416     0.00000000000000     2.64101469930416
O    -0.00000000000000     2.64101469930416     2.64101469930416