CRYSTAL
# Primitive lattice vectors in Angstrom
PRIMVEC
 2.95086350195920 0.00000000000000 1.70368183719799
 0.98362116731973 2.78210079012164 1.70368183719799
 0.00000000000000 0.00000000000000 3.40736367439597
# Cartesian coordinates in Angstrom.
PRIMCOORD
 2 1
Tm     0.00000000000000     0.00000000000000     0.00000000000000
O     1.96724233463947     1.39105039506082     3.40736367439597