CRYSTAL
# Primitive lattice vectors in Angstrom
PRIMVEC
 5.34295779755901 0.00000000000000 0.00000000000000
 -0.00000000000000 5.34295779755901 0.00000000000000
 0.00000000000000 0.00000000000000 5.34295779755901
# Cartesian coordinates in Angstrom.
PRIMCOORD
 14 1
U     0.00000000000000     0.00000000000000     0.00000000000000
U     2.67147889877951     2.67147889877951     0.00000000000000
U     2.67147889877951     0.00000000000000     2.67147889877951
U    -0.00000000000000     2.67147889877951     2.67147889877951
O     2.67147889877951     0.00000000000000     0.00000000000000
O    -0.00000000000000     2.67147889877951     0.00000000000000
O     0.00000000000000     0.00000000000000     2.67147889877951
O     2.67147889877951     2.67147889877951     2.67147889877951
O     4.00721834816926     4.00721834816926     1.33573944938975
O     4.00721834816926     1.33573944938975     4.00721834816926
O     1.33573944938975     4.00721834816926     4.00721834816926
O     4.00721834816926     1.33573944938975     1.33573944938975
O     1.33573944938975     4.00721834816926     1.33573944938975
O     1.33573944938975     1.33573944938975     4.00721834816926