CRYSTAL
# Primitive lattice vectors in Angstrom
PRIMVEC
 3.58434815804991 0.00000000000000 2.06942437391946
 1.19478271934997 3.37935585158747 2.06942437391946
 0.00000000000000 0.00000000000000 4.13884874783891
# Cartesian coordinates in Angstrom.
PRIMCOORD
 3 1
U     1.19478271934997     0.84483896289687     2.06942437391946
U     3.58434815804991     2.53451688869060     6.20827312175837
O     0.00000000000000     0.00000000000000     0.00000000000000