CRYSTAL
# Primitive lattice vectors in Angstrom
PRIMVEC
 5.32284047095132 0.00000000000000 0.00000000000000
 -0.00000000000000 5.32284047095132 0.00000000000000
 0.00000000000000 0.00000000000000 5.32284047095132
# Cartesian coordinates in Angstrom.
PRIMCOORD
 10 1
U     1.33071011773783     1.33071011773783     1.33071011773783
U     3.99213035321349     3.99213035321349     1.33071011773783
U     3.99213035321349     1.33071011773783     3.99213035321349
U     1.33071011773783     3.99213035321349     3.99213035321349
O     2.66142023547566     0.00000000000000     0.00000000000000
O    -0.00000000000000     2.66142023547566     0.00000000000000
O     0.00000000000000     0.00000000000000     2.66142023547566
O     2.66142023547566     2.66142023547566     0.00000000000000
O     2.66142023547566     0.00000000000000     2.66142023547566
O    -0.00000000000000     2.66142023547566     2.66142023547566