CRYSTAL
# Primitive lattice vectors in Angstrom
PRIMVEC
 2.96433011339793 0.00000000000000 1.71145678893721
 0.98811003779931 2.79479723314555 1.71145678893721
 0.00000000000000 0.00000000000000 3.42291357787441
# Cartesian coordinates in Angstrom.
PRIMCOORD
 2 1
U     0.00000000000000     0.00000000000000     0.00000000000000
O     1.97622007559862     1.39739861657277     3.42291357787441