CRYSTAL
# Primitive lattice vectors in Angstrom
PRIMVEC
 3.29725164674145 0.00000000000000 1.90366912583211
 1.09908388224715 3.10867866491918 1.90366912583211
 0.00000000000000 0.00000000000000 3.80733825166422
# Cartesian coordinates in Angstrom.
PRIMCOORD
 3 1
U     0.00000000000000     0.00000000000000     0.00000000000000
O     1.09908388224715     0.77716966622980     1.90366912583211
O     3.29725164674145     2.33150899868939     5.71100737749633