CRYSTAL
# Primitive lattice vectors in Angstrom
PRIMVEC
 4.16473513396550 0.00000000000000 0.00000000000000
 -0.00000000000000 4.16473513396550 0.00000000000000
 0.00000000000000 0.00000000000000 4.16473513396550
# Cartesian coordinates in Angstrom.
PRIMCOORD
 4 1
U     0.00000000000000     0.00000000000000     0.00000000000000
O     2.08236756698275     0.00000000000000     0.00000000000000
O    -0.00000000000000     2.08236756698275     0.00000000000000
O     0.00000000000000     0.00000000000000     2.08236756698275