CRYSTAL
# Primitive lattice vectors in Angstrom
PRIMVEC
 3.10894144031059 0.00000000000000 1.79494817745810
 1.03631381343686 2.93113809967399 1.79494817745810
 0.00000000000000 0.00000000000000 3.58989635491620
# Cartesian coordinates in Angstrom.
PRIMCOORD
 3 1
V     1.03631381343686     0.73278452491850     1.79494817745810
V     3.10894144031059     2.19835357475549     5.38484453237431
O     0.00000000000000     0.00000000000000     0.00000000000000