CRYSTAL
# Primitive lattice vectors in Angstrom
PRIMVEC
 4.93141176167191 0.00000000000000 0.00000000000000
 -0.00000000000000 4.93141176167191 0.00000000000000
 0.00000000000000 0.00000000000000 4.93141176167191
# Cartesian coordinates in Angstrom.
PRIMCOORD
 14 1
V     0.00000000000000     0.00000000000000     0.00000000000000
V     2.46570588083596     2.46570588083596     0.00000000000000
V     2.46570588083596     0.00000000000000     2.46570588083596
V    -0.00000000000000     2.46570588083596     2.46570588083596
O     2.46570588083596     0.00000000000000     0.00000000000000
O    -0.00000000000000     2.46570588083596     0.00000000000000
O     0.00000000000000     0.00000000000000     2.46570588083596
O     2.46570588083596     2.46570588083596     2.46570588083596
O     3.69855882125393     3.69855882125393     1.23285294041798
O     3.69855882125393     1.23285294041798     3.69855882125393
O     1.23285294041798     3.69855882125393     3.69855882125393
O     3.69855882125393     1.23285294041798     1.23285294041798
O     1.23285294041798     3.69855882125393     1.23285294041798
O     1.23285294041798     1.23285294041798     3.69855882125393