CRYSTAL
# Primitive lattice vectors in Angstrom
PRIMVEC
 4.66562216442748 0.00000000000000 0.00000000000000
 -0.00000000000000 4.66562216442748 0.00000000000000
 0.00000000000000 0.00000000000000 4.66562216442748
# Cartesian coordinates in Angstrom.
PRIMCOORD
 10 1
V     1.16640554110687     1.16640554110687     1.16640554110687
V     3.49921662332061     3.49921662332061     1.16640554110687
V     3.49921662332061     1.16640554110687     3.49921662332061
V     1.16640554110687     3.49921662332061     3.49921662332061
O     2.33281108221374     0.00000000000000     0.00000000000000
O    -0.00000000000000     2.33281108221374     0.00000000000000
O     0.00000000000000     0.00000000000000     2.33281108221374
O     2.33281108221374     2.33281108221374     0.00000000000000
O     2.33281108221374     0.00000000000000     2.33281108221374
O    -0.00000000000000     2.33281108221374     2.33281108221374