CRYSTAL
# Primitive lattice vectors in Angstrom
PRIMVEC
 3.69036273315088 0.00000000000000 0.00000000000000
 -0.00000000000000 3.69036273315088 0.00000000000000
 0.00000000000000 0.00000000000000 3.69036273315088
# Cartesian coordinates in Angstrom.
PRIMCOORD
 4 1
V     0.00000000000000     0.00000000000000     0.00000000000000
O     1.84518136657544     0.00000000000000     0.00000000000000
O    -0.00000000000000     1.84518136657544     0.00000000000000
O     0.00000000000000     0.00000000000000     1.84518136657544