CRYSTAL
# Primitive lattice vectors in Angstrom
PRIMVEC
 2.56247470130040 0.00000000000000 1.47944545858739
 0.85415823376680 2.41592431721132 1.47944545858739
 0.00000000000000 0.00000000000000 2.95889091717479
# Cartesian coordinates in Angstrom.
PRIMCOORD
 2 1
V     0.00000000000000     0.00000000000000     0.00000000000000
O     1.70831646753360     1.20796215860566     2.95889091717479