CRYSTAL
# Primitive lattice vectors in Angstrom
PRIMVEC
 2.90083621124043 0.00000000000000 1.67479856743468
 0.96694540374681 2.73493460810613 1.67479856743468
 0.00000000000000 0.00000000000000 3.34959713486935
# Cartesian coordinates in Angstrom.
PRIMCOORD
 3 1
V     0.00000000000000     0.00000000000000     0.00000000000000
O     0.96694540374681     0.68373365202653     1.67479856743468
O     2.90083621124043     2.05120095607960     5.02439570230403