CRYSTAL
# Primitive lattice vectors in Angstrom
PRIMVEC
 5.00744922330812 0.00000000000000 0.00000000000000
 -0.00000000000000 5.00744922330812 0.00000000000000
 0.00000000000000 0.00000000000000 5.00744922330812
# Cartesian coordinates in Angstrom.
PRIMCOORD
 14 1
W     0.00000000000000     0.00000000000000     0.00000000000000
W     2.50372461165406     2.50372461165406     0.00000000000000
W     2.50372461165406     0.00000000000000     2.50372461165406
W    -0.00000000000000     2.50372461165406     2.50372461165406
O     2.50372461165406     0.00000000000000     0.00000000000000
O    -0.00000000000000     2.50372461165406     0.00000000000000
O     0.00000000000000     0.00000000000000     2.50372461165406
O     2.50372461165406     2.50372461165406     2.50372461165406
O     3.75558691748109     3.75558691748109     1.25186230582703
O     3.75558691748109     1.25186230582703     3.75558691748109
O     1.25186230582703     3.75558691748109     3.75558691748109
O     3.75558691748109     1.25186230582703     1.25186230582703
O     1.25186230582703     3.75558691748109     1.25186230582703
O     1.25186230582703     1.25186230582703     3.75558691748109