CRYSTAL
# Primitive lattice vectors in Angstrom
PRIMVEC
 3.37323189805460 0.00000000000000 1.94753634438086
 1.12441063268487 3.18031353283891 1.94753634438086
 0.00000000000000 0.00000000000000 3.89507268876172
# Cartesian coordinates in Angstrom.
PRIMCOORD
 3 1
W     1.12441063268487     0.79507838320973     1.94753634438086
W     3.37323189805460     2.38523514962918     5.84260903314258
O     0.00000000000000     0.00000000000000     0.00000000000000