CRYSTAL
# Primitive lattice vectors in Angstrom
PRIMVEC
 4.85262001793889 0.00000000000000 0.00000000000000
 -0.00000000000000 4.85262001793889 0.00000000000000
 0.00000000000000 0.00000000000000 4.85262001793889
# Cartesian coordinates in Angstrom.
PRIMCOORD
 10 1
W     1.21315500448472     1.21315500448472     1.21315500448472
W     3.63946501345417     3.63946501345417     1.21315500448472
W     3.63946501345417     1.21315500448472     3.63946501345417
W     1.21315500448472     3.63946501345417     3.63946501345417
O     2.42631000896944     0.00000000000000     0.00000000000000
O    -0.00000000000000     2.42631000896944     0.00000000000000
O     0.00000000000000     0.00000000000000     2.42631000896944
O     2.42631000896944     2.42631000896944     0.00000000000000
O     2.42631000896944     0.00000000000000     2.42631000896944
O    -0.00000000000000     2.42631000896944     2.42631000896944