CRYSTAL
# Primitive lattice vectors in Angstrom
PRIMVEC
 2.73347997448133 0.00000000000000 1.57817539909125
 0.91115999149378 2.57714963492451 1.57817539909125
 0.00000000000000 0.00000000000000 3.15635079818250
# Cartesian coordinates in Angstrom.
PRIMCOORD
 2 1
W     0.00000000000000     0.00000000000000     0.00000000000000
O     1.82231998298756     1.28857481746225     3.15635079818250