CRYSTAL
# Primitive lattice vectors in Angstrom
PRIMVEC
 3.02543159830816 0.00000000000000 1.74673374769802
 1.00847719943605 2.85240426557301 1.74673374769802
 0.00000000000000 0.00000000000000 3.49346749539603
# Cartesian coordinates in Angstrom.
PRIMCOORD
 3 1
W     0.00000000000000     0.00000000000000     0.00000000000000
O     1.00847719943605     0.71310106639325     1.74673374769802
O     3.02543159830816     2.13930319917975     5.24020124309405