CRYSTAL
# Primitive lattice vectors in Angstrom
PRIMVEC
 3.82690907172757 0.00000000000000 0.00000000000000
 -0.00000000000000 3.82690907172757 0.00000000000000
 0.00000000000000 0.00000000000000 3.82690907172757
# Cartesian coordinates in Angstrom.
PRIMCOORD
 4 1
W     0.00000000000000     0.00000000000000     0.00000000000000
O     1.91345453586379     0.00000000000000     0.00000000000000
O    -0.00000000000000     1.91345453586379     0.00000000000000
O     0.00000000000000     0.00000000000000     1.91345453586379