CRYSTAL
# Primitive lattice vectors in Angstrom
PRIMVEC
 5.68308488119673 0.00000000000000 0.00000000000000
 -0.00000000000000 5.68308488119673 0.00000000000000
 0.00000000000000 0.00000000000000 5.68308488119673
# Cartesian coordinates in Angstrom.
PRIMCOORD
 14 1
Xe     0.00000000000000     0.00000000000000     0.00000000000000
Xe     2.84154244059837     2.84154244059837     0.00000000000000
Xe     2.84154244059837     0.00000000000000     2.84154244059837
Xe    -0.00000000000000     2.84154244059837     2.84154244059837
O     2.84154244059837     0.00000000000000     0.00000000000000
O    -0.00000000000000     2.84154244059837     0.00000000000000
O     0.00000000000000     0.00000000000000     2.84154244059837
O     2.84154244059837     2.84154244059837     2.84154244059837
O     4.26231366089755     4.26231366089755     1.42077122029918
O     4.26231366089755     1.42077122029918     4.26231366089755
O     1.42077122029918     4.26231366089755     4.26231366089755
O     4.26231366089755     1.42077122029918     1.42077122029918
O     1.42077122029918     4.26231366089755     1.42077122029918
O     1.42077122029918     1.42077122029918     4.26231366089755