CRYSTAL
# Primitive lattice vectors in Angstrom
PRIMVEC
 3.51726290788065 0.00000000000000 2.03069268667558
 1.17242096929355 3.31610727117109 2.03069268667558
 0.00000000000000 0.00000000000000 4.06138537335116
# Cartesian coordinates in Angstrom.
PRIMCOORD
 3 1
Xe     0.00000000000000     0.00000000000000     0.00000000000000
O     1.17242096929355     0.82902681779277     2.03069268667558
O     3.51726290788065     2.48708045337832     6.09207806002673