CRYSTAL
# Primitive lattice vectors in Angstrom
PRIMVEC
 5.82732331964533 0.00000000000000 0.00000000000000
 -0.00000000000000 5.82732331964533 0.00000000000000
 0.00000000000000 0.00000000000000 5.82732331964533
# Cartesian coordinates in Angstrom.
PRIMCOORD
 10 1
Xe     1.45683082991133     1.45683082991133     1.45683082991133
Xe     4.37049248973399     4.37049248973399     1.45683082991133
Xe     4.37049248973399     1.45683082991133     4.37049248973399
Xe     1.45683082991133     4.37049248973399     4.37049248973399
O     2.91366165982266     0.00000000000000     0.00000000000000
O    -0.00000000000000     2.91366165982266     0.00000000000000
O     0.00000000000000     0.00000000000000     2.91366165982266
O     2.91366165982266     2.91366165982266     0.00000000000000
O     2.91366165982266     0.00000000000000     2.91366165982266
O    -0.00000000000000     2.91366165982266     2.91366165982266