CRYSTAL
# Primitive lattice vectors in Angstrom
PRIMVEC
 4.05819291382058 0.00000000000000 0.00000000000000
 -0.00000000000000 4.05819291382058 0.00000000000000
 0.00000000000000 0.00000000000000 4.05819291382058
# Cartesian coordinates in Angstrom.
PRIMCOORD
 4 1
Xe     0.00000000000000     0.00000000000000     0.00000000000000
O     2.02909645691029     0.00000000000000     0.00000000000000
O    -0.00000000000000     2.02909645691029     0.00000000000000
O     0.00000000000000     0.00000000000000     2.02909645691029