CRYSTAL
# Primitive lattice vectors in Angstrom
PRIMVEC
 3.46406669755559 0.00000000000000 1.99997984032454
 1.15468889918520 3.26595340309873 1.99997984032454
 0.00000000000000 0.00000000000000 3.99995968064908
# Cartesian coordinates in Angstrom.
PRIMCOORD
 2 1
Xe     0.00000000000000     0.00000000000000     0.00000000000000
O     2.30937779837040     1.63297670154937     3.99995968064908