CRYSTAL
# Primitive lattice vectors in Angstrom
PRIMVEC
 5.01390288226949 0.00000000000000 2.89477817876893
 1.67130096075650 4.72715297101804 2.89477817876893
 0.00000000000000 0.00000000000000 5.78955635753786
# Cartesian coordinates in Angstrom.
PRIMCOORD
 3 1
Xe     1.67130096075650     1.18178824275451     2.89477817876893
Xe     5.01390288226949     3.54536472826353     8.68433453630679
O     0.00000000000000     0.00000000000000     0.00000000000000