CRYSTAL
# Primitive lattice vectors in Angstrom
PRIMVEC
 5.48441685324239 0.00000000000000 0.00000000000000
 -0.00000000000000 5.48441685324239 0.00000000000000
 0.00000000000000 0.00000000000000 5.48441685324239
# Cartesian coordinates in Angstrom.
PRIMCOORD
 14 1
Y     0.00000000000000     0.00000000000000     0.00000000000000
Y     2.74220842662119     2.74220842662119     0.00000000000000
Y     2.74220842662119     0.00000000000000     2.74220842662119
Y    -0.00000000000000     2.74220842662119     2.74220842662119
O     2.74220842662119     0.00000000000000     0.00000000000000
O    -0.00000000000000     2.74220842662119     0.00000000000000
O     0.00000000000000     0.00000000000000     2.74220842662119
O     2.74220842662119     2.74220842662119     2.74220842662119
O     4.11331263993179     4.11331263993179     1.37110421331060
O     4.11331263993179     1.37110421331060     4.11331263993179
O     1.37110421331060     4.11331263993179     4.11331263993179
O     4.11331263993179     1.37110421331060     1.37110421331060
O     1.37110421331060     4.11331263993179     1.37110421331060
O     1.37110421331060     1.37110421331060     4.11331263993179