CRYSTAL
# Primitive lattice vectors in Angstrom
PRIMVEC
 3.71963646146060 0.00000000000000 2.14753311231182
 1.23987882048687 3.50690688726336 2.14753311231182
 0.00000000000000 0.00000000000000 4.29506622462365
# Cartesian coordinates in Angstrom.
PRIMCOORD
 3 1
Y     1.23987882048687     0.87672672181584     2.14753311231182
Y     3.71963646146060     2.63018016544752     6.44259933693547
O     0.00000000000000     0.00000000000000     0.00000000000000