CRYSTAL
# Primitive lattice vectors in Angstrom
PRIMVEC
 5.34286450693819 0.00000000000000 0.00000000000000
 -0.00000000000000 5.34286450693819 0.00000000000000
 0.00000000000000 0.00000000000000 5.34286450693819
# Cartesian coordinates in Angstrom.
PRIMCOORD
 10 1
Y     1.33571612673455     1.33571612673455     1.33571612673455
Y     4.00714838020364     4.00714838020364     1.33571612673455
Y     4.00714838020364     1.33571612673455     4.00714838020364
Y     1.33571612673455     4.00714838020364     4.00714838020364
O     2.67143225346909     0.00000000000000     0.00000000000000
O    -0.00000000000000     2.67143225346909     0.00000000000000
O     0.00000000000000     0.00000000000000     2.67143225346909
O     2.67143225346909     2.67143225346909     0.00000000000000
O     2.67143225346909     0.00000000000000     2.67143225346909
O    -0.00000000000000     2.67143225346909     2.67143225346909