CRYSTAL
# Primitive lattice vectors in Angstrom
PRIMVEC
 2.95382851752531 0.00000000000000 1.70539368973323
 0.98460950584177 2.78489623360581 1.70539368973323
 0.00000000000000 0.00000000000000 3.41078737946647
# Cartesian coordinates in Angstrom.
PRIMCOORD
 2 1
Y     0.00000000000000     0.00000000000000     0.00000000000000
O     1.96921901168354     1.39244811680290     3.41078737946647