CRYSTAL
# Primitive lattice vectors in Angstrom
PRIMVEC
 3.32982873971180 0.00000000000000 1.92247751922796
 1.10994291323727 3.13939264272009 1.92247751922796
 0.00000000000000 0.00000000000000 3.84495503845592
# Cartesian coordinates in Angstrom.
PRIMCOORD
 3 1
Y     0.00000000000000     0.00000000000000     0.00000000000000
O     1.10994291323727     0.78484816068002     1.92247751922796
O     3.32982873971180     2.35454448204007     5.76743255768388