CRYSTAL
# Primitive lattice vectors in Angstrom
PRIMVEC
 4.23054712663416 0.00000000000000 0.00000000000000
 -0.00000000000000 4.23054712663416 0.00000000000000
 0.00000000000000 0.00000000000000 4.23054712663416
# Cartesian coordinates in Angstrom.
PRIMCOORD
 4 1
Yb     0.00000000000000     0.00000000000000     0.00000000000000
O     2.11527356331708     0.00000000000000     0.00000000000000
O    -0.00000000000000     2.11527356331708     0.00000000000000
O     0.00000000000000     0.00000000000000     2.11527356331708