CRYSTAL
# Primitive lattice vectors in Angstrom
PRIMVEC
 3.24791324866298 0.00000000000000 1.87518358842013
 1.08263774955433 3.06216197711363 1.87518358842013
 0.00000000000000 0.00000000000000 3.75036717684025
# Cartesian coordinates in Angstrom.
PRIMCOORD
 3 1
Yb     0.00000000000000     0.00000000000000     0.00000000000000
O     1.08263774955433     0.76554049427841     1.87518358842013
O     3.24791324866298     2.29662148283523     5.62555076526038