CRYSTAL
# Primitive lattice vectors in Angstrom
PRIMVEC
 2.95151291034666 0.00000000000000 1.70405677330530
 0.98383763678222 2.78271305822102 1.70405677330530
 0.00000000000000 0.00000000000000 3.40811354661060
# Cartesian coordinates in Angstrom.
PRIMCOORD
 2 1
Yb     0.00000000000000     0.00000000000000     0.00000000000000
O     1.96767527356444     1.39135652911051     3.40811354661060