CRYSTAL
# Primitive lattice vectors in Angstrom
PRIMVEC
 5.41171724644135 0.00000000000000 0.00000000000000
 -0.00000000000000 5.41171724644135 0.00000000000000
 0.00000000000000 0.00000000000000 5.41171724644135
# Cartesian coordinates in Angstrom.
PRIMCOORD
 14 1
Yb     0.00000000000000     0.00000000000000     0.00000000000000
Yb     2.70585862322067     2.70585862322067     0.00000000000000
Yb     2.70585862322067     0.00000000000000     2.70585862322067
Yb    -0.00000000000000     2.70585862322067     2.70585862322067
O     2.70585862322067     0.00000000000000     0.00000000000000
O    -0.00000000000000     2.70585862322067     0.00000000000000
O     0.00000000000000     0.00000000000000     2.70585862322067
O     2.70585862322067     2.70585862322067     2.70585862322068
O     4.05878793483101     4.05878793483101     1.35292931161034
O     4.05878793483101     1.35292931161034     4.05878793483101
O     1.35292931161034     4.05878793483101     4.05878793483101
O     4.05878793483101     1.35292931161034     1.35292931161034
O     1.35292931161034     4.05878793483101     1.35292931161034
O     1.35292931161034     1.35292931161034     4.05878793483101