CRYSTAL
# Primitive lattice vectors in Angstrom
PRIMVEC
 3.75110150774006 0.00000000000000 2.16569946525133
 1.25036716924669 3.53657241738944 2.16569946525133
 0.00000000000000 0.00000000000000 4.33139893050267
# Cartesian coordinates in Angstrom.
PRIMCOORD
 3 1
Yb     1.25036716924669     0.88414310434736     2.16569946525133
Yb     3.75110150774006     2.65242931304208     6.49709839575400
O     0.00000000000000     0.00000000000000     0.00000000000000