CRYSTAL
# Primitive lattice vectors in Angstrom
PRIMVEC
 5.28750243254733 0.00000000000000 0.00000000000000
 -0.00000000000000 5.28750243254733 0.00000000000000
 0.00000000000000 0.00000000000000 5.28750243254733
# Cartesian coordinates in Angstrom.
PRIMCOORD
 10 1
Yb     1.32187560813683     1.32187560813683     1.32187560813683
Yb     3.96562682441050     3.96562682441050     1.32187560813683
Yb     3.96562682441050     1.32187560813683     3.96562682441050
Yb     1.32187560813683     3.96562682441050     3.96562682441050
O     2.64375121627367     0.00000000000000     0.00000000000000
O    -0.00000000000000     2.64375121627367     0.00000000000000
O     0.00000000000000     0.00000000000000     2.64375121627367
O     2.64375121627367     2.64375121627367     0.00000000000000
O     2.64375121627367     0.00000000000000     2.64375121627367
O    -0.00000000000000     2.64375121627367     2.64375121627367