CRYSTAL
# Primitive lattice vectors in Angstrom
PRIMVEC
 4.83834852665618 0.00000000000000 0.00000000000000
 -0.00000000000000 4.83834852665618 0.00000000000000
 0.00000000000000 0.00000000000000 4.83834852665618
# Cartesian coordinates in Angstrom.
PRIMCOORD
 10 1
Zn     1.20958713166404     1.20958713166404     1.20958713166404
Zn     3.62876139499213     3.62876139499213     1.20958713166404
Zn     3.62876139499213     1.20958713166404     3.62876139499213
Zn     1.20958713166404     3.62876139499213     3.62876139499213
O     2.41917426332809     0.00000000000000     0.00000000000000
O    -0.00000000000000     2.41917426332809     0.00000000000000
O     0.00000000000000     0.00000000000000     2.41917426332809
O     2.41917426332809     2.41917426332809     0.00000000000000
O     2.41917426332809     0.00000000000000     2.41917426332809
O    -0.00000000000000     2.41917426332809     2.41917426332809