CRYSTAL
# Primitive lattice vectors in Angstrom
PRIMVEC
 2.65084939663537 0.00000000000000 1.53046861272859
 0.88361646554512 2.49924477902019 1.53046861272859
 0.00000000000000 0.00000000000000 3.06093722545718
# Cartesian coordinates in Angstrom.
PRIMCOORD
 2 1
Zn     0.00000000000000     0.00000000000000     0.00000000000000
O     1.76723293109025     1.24962238951009     3.06093722545718