CRYSTAL
# Primitive lattice vectors in Angstrom
PRIMVEC
 3.83850472486050 0.00000000000000 0.00000000000000
 -0.00000000000000 3.83850472486050 0.00000000000000
 0.00000000000000 0.00000000000000 3.83850472486050
# Cartesian coordinates in Angstrom.
PRIMCOORD
 4 1
Zn     0.00000000000000     0.00000000000000     0.00000000000000
O     1.91925236243025     0.00000000000000     0.00000000000000
O    -0.00000000000000     1.91925236243025     0.00000000000000
O     0.00000000000000     0.00000000000000     1.91925236243025