CRYSTAL
# Primitive lattice vectors in Angstrom
PRIMVEC
 3.34294860832596 0.00000000000000 1.93005227890408
 1.11431620277532 3.15176217347389 1.93005227890408
 0.00000000000000 0.00000000000000 3.86010455780815
# Cartesian coordinates in Angstrom.
PRIMCOORD
 3 1
Zn     1.11431620277532     0.78794054336847     1.93005227890408
Zn     3.34294860832596     2.36382163010542     5.79015683671223
O     0.00000000000000     0.00000000000000     0.00000000000000