CRYSTAL
# Primitive lattice vectors in Angstrom
PRIMVEC
 5.15554672596878 0.00000000000000 0.00000000000000
 -0.00000000000000 5.15554672596878 0.00000000000000
 0.00000000000000 0.00000000000000 5.15554672596878
# Cartesian coordinates in Angstrom.
PRIMCOORD
 14 1
Zn     0.00000000000000     0.00000000000000     0.00000000000000
Zn     2.57777336298439     2.57777336298439     0.00000000000000
Zn     2.57777336298439     0.00000000000000     2.57777336298439
Zn    -0.00000000000000     2.57777336298439     2.57777336298439
O     2.57777336298439     0.00000000000000     0.00000000000000
O    -0.00000000000000     2.57777336298439     0.00000000000000
O     0.00000000000000     0.00000000000000     2.57777336298439
O     2.57777336298439     2.57777336298439     2.57777336298439
O     3.86666004447659     3.86666004447659     1.28888668149220
O     3.86666004447659     1.28888668149220     3.86666004447659
O     1.28888668149220     3.86666004447659     3.86666004447659
O     3.86666004447659     1.28888668149220     1.28888668149220
O     1.28888668149220     3.86666004447659     1.28888668149220
O     1.28888668149220     1.28888668149220     3.86666004447659