CRYSTAL
# Primitive lattice vectors in Angstrom
PRIMVEC
 3.03348294036723 0.00000000000000 1.75138219220316
 1.01116098012241 2.85999514366316 1.75138219220316
 0.00000000000000 0.00000000000000 3.50276438440631
# Cartesian coordinates in Angstrom.
PRIMCOORD
 3 1
Zn     0.00000000000000     0.00000000000000     0.00000000000000
O     1.01116098012241     0.71499878591579     1.75138219220316
O     3.03348294036723     2.14499635774737     5.25414657660947