CRYSTAL
# Primitive lattice vectors in Angstrom
PRIMVEC
 4.16620757661296 0.00000000000000 0.00000000000000
 -0.00000000000000 4.16620757661296 0.00000000000000
 0.00000000000000 0.00000000000000 4.16620757661296
# Cartesian coordinates in Angstrom.
PRIMCOORD
 4 1
Zr     0.00000000000000     0.00000000000000     0.00000000000000
O     2.08310378830648     0.00000000000000     0.00000000000000
O    -0.00000000000000     2.08310378830648     0.00000000000000
O     0.00000000000000     0.00000000000000     2.08310378830648