CRYSTAL
# Primitive lattice vectors in Angstrom
PRIMVEC
 2.81495226640414 0.00000000000000 1.62521344876438
 0.93831742213471 2.65396244838775 1.62521344876438
 0.00000000000000 0.00000000000000 3.25042689752876
# Cartesian coordinates in Angstrom.
PRIMCOORD
 2 1
Zr     0.00000000000000     0.00000000000000     0.00000000000000
O     1.87663484426943     1.32698122419387     3.25042689752876