CRYSTAL
# Primitive lattice vectors in Angstrom
PRIMVEC
 3.53488155421293 0.00000000000000 2.04086481687828
 1.17829385140431 3.33271829023360 2.04086481687828
 0.00000000000000 0.00000000000000 4.08172963375655
# Cartesian coordinates in Angstrom.
PRIMCOORD
 3 1
Zr     1.17829385140431     0.83317957255840     2.04086481687828
Zr     3.53488155421293     2.49953871767520     6.12259445063483
O     0.00000000000000     0.00000000000000     0.00000000000000