CRYSTAL
# Primitive lattice vectors in Angstrom
PRIMVEC
 3.13291443637124 0.00000000000000 1.80878899318700
 1.04430481212375 2.95374005711378 1.80878899318700
 0.00000000000000 0.00000000000000 3.61757798637400
# Cartesian coordinates in Angstrom.
PRIMCOORD
 3 1
Zr     0.00000000000000     0.00000000000000     0.00000000000000
O     1.04430481212375     0.73843501427844     1.80878899318700
O     3.13291443637124     2.21530504283533     5.42636697956100