CRYSTAL
# Primitive lattice vectors in Angstrom
PRIMVEC
 5.24099891951241 0.00000000000000 0.00000000000000
 -0.00000000000000 5.24099891951241 0.00000000000000
 0.00000000000000 0.00000000000000 5.24099891951241
# Cartesian coordinates in Angstrom.
PRIMCOORD
 14 1
Zr     0.00000000000000     0.00000000000000     0.00000000000000
Zr     2.62049945975621     2.62049945975621     0.00000000000000
Zr     2.62049945975621     0.00000000000000     2.62049945975621
Zr    -0.00000000000000     2.62049945975621     2.62049945975621
O     2.62049945975621     0.00000000000000     0.00000000000000
O    -0.00000000000000     2.62049945975621     0.00000000000000
O     0.00000000000000     0.00000000000000     2.62049945975621
O     2.62049945975621     2.62049945975621     2.62049945975621
O     3.93074918963431     3.93074918963431     1.31024972987810
O     3.93074918963431     1.31024972987810     3.93074918963431
O     1.31024972987810     3.93074918963431     3.93074918963431
O     3.93074918963431     1.31024972987810     1.31024972987810
O     1.31024972987810     3.93074918963431     1.31024972987810
O     1.31024972987810     1.31024972987810     3.93074918963431