CRYSTAL
# Primitive lattice vectors in Angstrom
PRIMVEC
 5.06942810532707 0.00000000000000 0.00000000000000
 -0.00000000000000 5.06942810532707 0.00000000000000
 0.00000000000000 0.00000000000000 5.06942810532707
# Cartesian coordinates in Angstrom.
PRIMCOORD
 10 1
Zr     1.26735702633177     1.26735702633177     1.26735702633177
Zr     3.80207107899530     3.80207107899531     1.26735702633177
Zr     3.80207107899531     1.26735702633177     3.80207107899531
Zr     1.26735702633177     3.80207107899531     3.80207107899531
O     2.53471405266354     0.00000000000000     0.00000000000000
O    -0.00000000000000     2.53471405266354     0.00000000000000
O     0.00000000000000     0.00000000000000     2.53471405266354
O     2.53471405266354     2.53471405266354     0.00000000000000
O     2.53471405266354     0.00000000000000     2.53471405266354
O    -0.00000000000000     2.53471405266354     2.53471405266354