CRYSTAL
PRIMVEC
 0.00000000000000 3.85480750887850 3.85480750887850
 3.85480750887850 0.00000000000000 3.85480750887850
 3.85480750887850 3.85480750887850 0.00000000000000
PRIMCOORD
 2 1
 89     0.00000000000000     0.00000000000000     0.00000000000000
 89     1.92740375443925     1.92740375443925     1.92740375443925
