CRYSTAL
PRIMVEC
 0.00000000000000 3.85480731999984 3.85480731999984
 3.85480731999984 0.00000000000000 3.85480731999984
 3.85480731999984 3.85480731999984 0.00000000000000
PRIMCOORD
 2 1
 89     0.00000000000000     0.00000000000000     0.00000000000000
 89     1.92740365999992     1.92740365999992     1.92740365999992
