CRYSTAL
PRIMVEC
 0.00000000000000 2.96577654404031 2.96577654404031
 2.96577654404031 0.00000000000000 2.96577654404031
 2.96577654404031 2.96577654404031 0.00000000000000
PRIMCOORD
 2 1
 47     0.00000000000000     0.00000000000000     0.00000000000000
 47     1.48288827202015     1.48288827202015     1.48288827202015
