CRYSTAL
PRIMVEC
 0.00000000000000 2.96577655078153 2.96577655078153
 2.96577655078153 0.00000000000000 2.96577655078153
 2.96577655078153 2.96577655078153 0.00000000000000
PRIMCOORD
 2 1
 47     0.00000000000000     0.00000000000000     0.00000000000000
 47     1.48288827539077     1.48288827539077     1.48288827539077
