CRYSTAL
PRIMVEC
 0.00000000000000 2.97419224332239 2.97419224332239
 2.97419224332239 0.00000000000000 2.97419224332239
 2.97419224332239 2.97419224332239 0.00000000000000
PRIMCOORD
 2 1
 13     0.00000000000000     0.00000000000000     0.00000000000000
 13     1.48709612166120     1.48709612166120     1.48709612166120
