CRYSTAL
PRIMVEC
 0.00000000000000 2.97419224705339 2.97419224705339
 2.97419224705339 0.00000000000000 2.97419224705339
 2.97419224705339 2.97419224705339 0.00000000000000
PRIMCOORD
 2 1
 13     0.00000000000000     0.00000000000000     0.00000000000000
 13     1.48709612352670     1.48709612352670     1.48709612352670
