CRYSTAL
PRIMVEC
 0.00000000000000 2.64091629864799 2.64091629864799
 2.64091629864799 0.00000000000000 2.64091629864799
 2.64091629864799 2.64091629864799 0.00000000000000
PRIMCOORD
 2 1
 95     0.00000000000000     0.00000000000000     0.00000000000000
 95     1.32045814932399     1.32045814932399     1.32045814932399
