CRYSTAL
PRIMVEC
 0.00000000000000 2.64091612916441 2.64091612916441
 2.64091612916441 0.00000000000000 2.64091612916441
 2.64091612916441 2.64091612916441 0.00000000000000
PRIMCOORD
 2 1
 95     0.00000000000000     0.00000000000000     0.00000000000000
 95     1.32045806458220     1.32045806458220     1.32045806458220
