CRYSTAL
PRIMVEC
 0.00000000000000 3.91768577264553 3.91768577264553
 3.91768577264553 0.00000000000000 3.91768577264553
 3.91768577264553 3.91768577264553 0.00000000000000
PRIMCOORD
 2 1
 18     0.00000000000000     0.00000000000000     0.00000000000000
 18     1.95884288632277     1.95884288632277     1.95884288632277
