CRYSTAL
PRIMVEC
 0.00000000000000 2.98106696523415 2.98106696523415
 2.98106696523415 0.00000000000000 2.98106696523415
 2.98106696523415 2.98106696523415 0.00000000000000
PRIMCOORD
 2 1
 33     0.00000000000000     0.00000000000000     0.00000000000000
 33     1.49053348261707     1.49053348261707     1.49053348261707
