CRYSTAL
PRIMVEC
 0.00000000000000 2.98106693439807 2.98106693439807
 2.98106693439807 0.00000000000000 2.98106693439807
 2.98106693439807 2.98106693439807 0.00000000000000
PRIMCOORD
 2 1
 33     0.00000000000000     0.00000000000000     0.00000000000000
 33     1.49053346719904     1.49053346719904     1.49053346719904
