CRYSTAL
PRIMVEC
 0.00000000000000 3.91197467232625 3.91197467232625
 3.91197467232625 0.00000000000000 3.91197467232625
 3.91197467232625 3.91197467232625 0.00000000000000
PRIMCOORD
 2 1
 85     0.00000000000000     0.00000000000000     0.00000000000000
 85     1.95598733616313     1.95598733616313     1.95598733616313
