CRYSTAL
PRIMVEC
 0.00000000000000 3.91197471468794 3.91197471468794
 3.91197471468794 0.00000000000000 3.91197471468794
 3.91197471468794 3.91197471468794 0.00000000000000
PRIMCOORD
 2 1
 85     0.00000000000000     0.00000000000000     0.00000000000000
 85     1.95598735734397     1.95598735734397     1.95598735734397
