CRYSTAL
PRIMVEC
 0.00000000000000 2.97662430725359 2.97662430725359
 2.97662430725359 0.00000000000000 2.97662430725359
 2.97662430725359 2.97662430725359 0.00000000000000
PRIMCOORD
 2 1
 79     0.00000000000000     0.00000000000000     0.00000000000000
 79     1.48831215362680     1.48831215362680     1.48831215362680
