CRYSTAL
PRIMVEC
 0.00000000000000 2.97662429454524 2.97662429454524
 2.97662429454524 0.00000000000000 2.97662429454524
 2.97662429454524 2.97662429454524 0.00000000000000
PRIMCOORD
 2 1
 79     0.00000000000000     0.00000000000000     0.00000000000000
 79     1.48831214727262     1.48831214727262     1.48831214727262
