CRYSTAL
PRIMVEC
 0.00000000000000 2.00103721429889 2.00103721429889
 2.00103721429889 0.00000000000000 2.00103721429889
 2.00103721429889 2.00103721429889 0.00000000000000
PRIMCOORD
 2 1
  5     0.00000000000000     0.00000000000000     0.00000000000000
  5     1.00051860714944     1.00051860714944     1.00051860714944
