CRYSTAL
PRIMVEC
 0.00000000000000 2.00103721650356 2.00103721650356
 2.00103721650356 0.00000000000000 2.00103721650356
 2.00103721650356 2.00103721650356 0.00000000000000
PRIMCOORD
 2 1
  5     0.00000000000000     0.00000000000000     0.00000000000000
  5     1.00051860825178     1.00051860825178     1.00051860825178
