CRYSTAL
PRIMVEC
 0.00000000000000 3.64076399125152 3.64076399125152
 3.64076399125152 0.00000000000000 3.64076399125152
 3.64076399125152 3.64076399125152 0.00000000000000
PRIMCOORD
 2 1
 56     0.00000000000000     0.00000000000000     0.00000000000000
 56     1.82038199562576     1.82038199562576     1.82038199562576
