CRYSTAL
PRIMVEC
 0.00000000000000 3.64076408786480 3.64076408786480
 3.64076408786480 0.00000000000000 3.64076408786480
 3.64076408786480 3.64076408786480 0.00000000000000
PRIMCOORD
 2 1
 56     0.00000000000000     0.00000000000000     0.00000000000000
 56     1.82038204393240     1.82038204393240     1.82038204393240
