CRYSTAL
PRIMVEC
 0.00000000000000 2.41245388565251 2.41245388565251
 2.41245388565251 0.00000000000000 2.41245388565251
 2.41245388565251 2.41245388565251 0.00000000000000
PRIMCOORD
 2 1
  4     0.00000000000000     0.00000000000000     0.00000000000000
  4     1.20622694282626     1.20622694282626     1.20622694282626
