CRYSTAL
PRIMVEC
 0.00000000000000 2.41245390839583 2.41245390839583
 2.41245390839583 0.00000000000000 2.41245390839583
 2.41245390839583 2.41245390839583 0.00000000000000
PRIMCOORD
 2 1
  4     0.00000000000000     0.00000000000000     0.00000000000000
  4     1.20622695419792     1.20622695419792     1.20622695419792
