CRYSTAL
PRIMVEC
 0.00000000000000 3.55133294945967 3.55133294945967
 3.55133294945967 0.00000000000000 3.55133294945967
 3.55133294945967 3.55133294945967 0.00000000000000
PRIMCOORD
 2 1
 83     0.00000000000000     0.00000000000000     0.00000000000000
 83     1.77566647472984     1.77566647472984     1.77566647472984
