CRYSTAL
PRIMVEC
 0.00000000000000 3.55133298386298 3.55133298386298
 3.55133298386298 0.00000000000000 3.55133298386298
 3.55133298386298 3.55133298386298 0.00000000000000
PRIMCOORD
 2 1
 83     0.00000000000000     0.00000000000000     0.00000000000000
 83     1.77566649193149     1.77566649193149     1.77566649193149
