CRYSTAL
PRIMVEC
 0.00000000000000 2.64553786581374 2.64553786581374
 2.64553786581374 0.00000000000000 2.64553786581374
 2.64553786581374 2.64553786581374 0.00000000000000
PRIMCOORD
 2 1
 97     0.00000000000000     0.00000000000000     0.00000000000000
 97     1.32276893290687     1.32276893290687     1.32276893290687
