CRYSTAL
PRIMVEC
 0.00000000000000 3.36089481868720 3.36089481868720
 3.36089481868720 0.00000000000000 3.36089481868720
 3.36089481868720 3.36089481868720 0.00000000000000
PRIMCOORD
 2 1
 35     0.00000000000000     0.00000000000000     0.00000000000000
 35     1.68044740934360     1.68044740934360     1.68044740934360
