CRYSTAL
PRIMVEC
 0.00000000000000 3.36089481921174 3.36089481921174
 3.36089481921174 0.00000000000000 3.36089481921174
 3.36089481921174 3.36089481921174 0.00000000000000
PRIMCOORD
 2 1
 35     0.00000000000000     0.00000000000000     0.00000000000000
 35     1.68044740960587     1.68044740960587     1.68044740960587
