CRYSTAL
PRIMVEC
 0.00000000000000 1.76616512590005 1.76616512590005
 1.76616512590005 0.00000000000000 1.76616512590005
 1.76616512590005 1.76616512590005 0.00000000000000
PRIMCOORD
 2 1
  6     0.00000000000000     0.00000000000000     0.00000000000000
  6     0.88308256295003     0.88308256295003     0.88308256295003
