CRYSTAL
PRIMVEC
 0.00000000000000 1.76616511909842 1.76616511909842
 1.76616511909842 0.00000000000000 1.76616511909842
 1.76616511909842 1.76616511909842 0.00000000000000
PRIMCOORD
 2 1
  6     0.00000000000000     0.00000000000000     0.00000000000000
  6     0.88308255954921     0.88308255954921     0.88308255954921
