CRYSTAL
PRIMVEC
 0.00000000000000 4.13266610506717 4.13266610506717
 4.13266610506717 0.00000000000000 4.13266610506717
 4.13266610506717 4.13266610506717 0.00000000000000
PRIMCOORD
 2 1
 20     0.00000000000000     0.00000000000000     0.00000000000000
 20     2.06633305253358     2.06633305253358     2.06633305253358
