CRYSTAL
PRIMVEC
 0.00000000000000 4.13266610741064 4.13266610741064
 4.13266610741064 0.00000000000000 4.13266610741064
 4.13266610741064 4.13266610741064 0.00000000000000
PRIMCOORD
 2 1
 20     0.00000000000000     0.00000000000000     0.00000000000000
 20     2.06633305370532     2.06633305370532     2.06633305370532
