CRYSTAL
PRIMVEC
 0.00000000000000 3.15670531620520 3.15670531620520
 3.15670531620520 0.00000000000000 3.15670531620520
 3.15670531620520 3.15670531620520 0.00000000000000
PRIMCOORD
 2 1
 48     0.00000000000000     0.00000000000000     0.00000000000000
 48     1.57835265810260     1.57835265810260     1.57835265810260
