CRYSTAL
PRIMVEC
 0.00000000000000 3.15670530220103 3.15670530220103
 3.15670530220103 0.00000000000000 3.15670530220103
 3.15670530220103 3.15670530220103 0.00000000000000
PRIMCOORD
 2 1
 48     0.00000000000000     0.00000000000000     0.00000000000000
 48     1.57835265110051     1.57835265110051     1.57835265110051
