CRYSTAL
PRIMVEC
 0.00000000000000 3.04803409151647 3.04803409151647
 3.04803409151647 0.00000000000000 3.04803409151647
 3.04803409151647 3.04803409151647 0.00000000000000
PRIMCOORD
 2 1
 58     0.00000000000000     0.00000000000000     0.00000000000000
 58     1.52401704575824     1.52401704575824     1.52401704575824
