CRYSTAL
PRIMVEC
 0.00000000000000 3.04803410421988 3.04803410421988
 3.04803410421988 0.00000000000000 3.04803410421988
 3.04803410421988 3.04803410421988 0.00000000000000
PRIMCOORD
 2 1
 58     0.00000000000000     0.00000000000000     0.00000000000000
 58     1.52401705210994     1.52401705210994     1.52401705210994
