CRYSTAL
PRIMVEC
 0.00000000000000 2.68230329141933 2.68230329141933
 2.68230329141933 0.00000000000000 2.68230329141933
 2.68230329141933 2.68230329141933 0.00000000000000
PRIMCOORD
 2 1
 98     0.00000000000000     0.00000000000000     0.00000000000000
 98     1.34115164570966     1.34115164570966     1.34115164570966
