CRYSTAL
PRIMVEC
 0.00000000000000 2.68230284371630 2.68230284371630
 2.68230284371630 0.00000000000000 2.68230284371630
 2.68230284371630 2.68230284371630 0.00000000000000
PRIMCOORD
 2 1
 98     0.00000000000000     0.00000000000000     0.00000000000000
 98     1.34115142185815     1.34115142185815     1.34115142185815
