CRYSTAL
PRIMVEC
 0.00000000000000 3.09129968490691 3.09129968490691
 3.09129968490691 0.00000000000000 3.09129968490691
 3.09129968490691 3.09129968490691 0.00000000000000
PRIMCOORD
 2 1
 17     0.00000000000000     0.00000000000000     0.00000000000000
 17     1.54564984245346     1.54564984245346     1.54564984245346
