CRYSTAL
PRIMVEC
 0.00000000000000 3.09129968116707 3.09129968116707
 3.09129968116707 0.00000000000000 3.09129968116707
 3.09129968116707 3.09129968116707 0.00000000000000
PRIMCOORD
 2 1
 17     0.00000000000000     0.00000000000000     0.00000000000000
 17     1.54564984058353     1.54564984058353     1.54564984058353
