CRYSTAL
PRIMVEC
 0.00000000000000 2.62896009454551 2.62896009454551
 2.62896009454551 0.00000000000000 2.62896009454551
 2.62896009454551 2.62896009454551 0.00000000000000
PRIMCOORD
 2 1
 96     0.00000000000000     0.00000000000000     0.00000000000000
 96     1.31448004727276     1.31448004727276     1.31448004727276
