CRYSTAL
PRIMVEC
 0.00000000000000 2.62895985869294 2.62895985869294
 2.62895985869294 0.00000000000000 2.62895985869294
 2.62895985869294 2.62895985869294 0.00000000000000
PRIMCOORD
 2 1
 96     0.00000000000000     0.00000000000000     0.00000000000000
 96     1.31447992934647     1.31447992934647     1.31447992934647
