CRYSTAL
PRIMVEC
 0.00000000000000 2.39390598840584 2.39390598840584
 2.39390598840584 0.00000000000000 2.39390598840584
 2.39390598840584 2.39390598840584 0.00000000000000
PRIMCOORD
 2 1
 27     0.00000000000000     0.00000000000000     0.00000000000000
 27     1.19695299420292     1.19695299420292     1.19695299420292
