CRYSTAL
PRIMVEC
 0.00000000000000 2.39390608642497 2.39390608642497
 2.39390608642497 0.00000000000000 2.39390608642497
 2.39390608642497 2.39390608642497 0.00000000000000
PRIMCOORD
 2 1
 27     0.00000000000000     0.00000000000000     0.00000000000000
 27     1.19695304321248     1.19695304321248     1.19695304321248
