CRYSTAL
PRIMVEC
 0.00000000000000 2.46955099305183 2.46955099305183
 2.46955099305183 0.00000000000000 2.46955099305183
 2.46955099305183 2.46955099305183 0.00000000000000
PRIMCOORD
 2 1
 24     0.00000000000000     0.00000000000000     0.00000000000000
 24     1.23477549652591     1.23477549652591     1.23477549652591
