CRYSTAL
PRIMVEC
 0.00000000000000 5.39645636545399 5.39645636545399
 5.39645636545399 0.00000000000000 5.39645636545399
 5.39645636545399 5.39645636545399 0.00000000000000
PRIMCOORD
 2 1
 55     0.00000000000000     0.00000000000000     0.00000000000000
 55     2.69822818272699     2.69822818272699     2.69822818272699
