CRYSTAL
PRIMVEC
 0.00000000000000 5.39645635888247 5.39645635888247
 5.39645635888247 0.00000000000000 5.39645635888247
 5.39645635888247 5.39645635888247 0.00000000000000
PRIMCOORD
 2 1
 55     0.00000000000000     0.00000000000000     0.00000000000000
 55     2.69822817944124     2.69822817944124     2.69822817944124
