CRYSTAL
PRIMVEC
 0.00000000000000 2.57497192920214 2.57497192920214
 2.57497192920214 0.00000000000000 2.57497192920214
 2.57497192920214 2.57497192920214 0.00000000000000
PRIMCOORD
 2 1
 29     0.00000000000000     0.00000000000000     0.00000000000000
 29     1.28748596460107     1.28748596460107     1.28748596460107
