CRYSTAL
PRIMVEC
 0.00000000000000 2.57497196498928 2.57497196498928
 2.57497196498928 0.00000000000000 2.57497196498928
 2.57497196498928 2.57497196498928 0.00000000000000
PRIMCOORD
 2 1
 29     0.00000000000000     0.00000000000000     0.00000000000000
 29     1.28748598249464     1.28748598249464     1.28748598249464
