CRYSTAL
PRIMVEC
 0.00000000000000 2.71471896468534 2.71471896468534
 2.71471896468534 0.00000000000000 2.71471896468534
 2.71471896468534 2.71471896468534 0.00000000000000
PRIMCOORD
 2 1
 66     0.00000000000000     0.00000000000000     0.00000000000000
 66     1.35735948234267     1.35735948234267     1.35735948234267
