CRYSTAL
PRIMVEC
 0.00000000000000 2.71471902237078 2.71471902237078
 2.71471902237078 0.00000000000000 2.71471902237078
 2.71471902237078 2.71471902237078 0.00000000000000
PRIMCOORD
 2 1
 66     0.00000000000000     0.00000000000000     0.00000000000000
 66     1.35735951118539     1.35735951118539     1.35735951118539
