CRYSTAL
PRIMVEC
 0.00000000000000 2.83091630411870 2.83091630411870
 2.83091630411870 0.00000000000000 2.83091630411870
 2.83091630411870 2.83091630411870 0.00000000000000
PRIMCOORD
 2 1
 68     0.00000000000000     0.00000000000000     0.00000000000000
 68     1.41545815205935     1.41545815205935     1.41545815205935
