CRYSTAL
PRIMVEC
 0.00000000000000 2.83091628476091 2.83091628476091
 2.83091628476091 0.00000000000000 2.83091628476091
 2.83091628476091 2.83091628476091 0.00000000000000
PRIMCOORD
 2 1
 68     0.00000000000000     0.00000000000000     0.00000000000000
 68     1.41545814238046     1.41545814238046     1.41545814238046
