CRYSTAL
PRIMVEC
 0.00000000000000 2.75439317424869 2.75439317424869
 2.75439317424869 0.00000000000000 2.75439317424869
 2.75439317424869 2.75439317424869 0.00000000000000
PRIMCOORD
 2 1
 99     0.00000000000000     0.00000000000000     0.00000000000000
 99     1.37719658712435     1.37719658712435     1.37719658712435
