CRYSTAL
PRIMVEC
 0.00000000000000 2.75439305284797 2.75439305284797
 2.75439305284797 0.00000000000000 2.75439305284797
 2.75439305284797 2.75439305284797 0.00000000000000
PRIMCOORD
 2 1
 99     0.00000000000000     0.00000000000000     0.00000000000000
 99     1.37719652642399     1.37719652642399     1.37719652642399
