CRYSTAL
PRIMVEC
 0.00000000000000 2.66809460187581 2.66809460187581
 2.66809460187581 0.00000000000000 2.66809460187581
 2.66809460187581 2.66809460187581 0.00000000000000
PRIMCOORD
 2 1
 63     0.00000000000000     0.00000000000000     0.00000000000000
 63     1.33404730093790     1.33404730093790     1.33404730093790
