CRYSTAL
PRIMVEC
 0.00000000000000 2.66809468405205 2.66809468405205
 2.66809468405205 0.00000000000000 2.66809468405205
 2.66809468405205 2.66809468405205 0.00000000000000
PRIMCOORD
 2 1
 63     0.00000000000000     0.00000000000000     0.00000000000000
 63     1.33404734202603     1.33404734202603     1.33404734202603
