CRYSTAL
PRIMVEC
 0.00000000000000 2.32544789477948 2.32544789477948
 2.32544789477948 0.00000000000000 2.32544789477948
 2.32544789477948 2.32544789477948 0.00000000000000
PRIMCOORD
 2 1
  9     0.00000000000000     0.00000000000000     0.00000000000000
  9     1.16272394738974     1.16272394738974     1.16272394738974
