CRYSTAL
PRIMVEC
 0.00000000000000 2.32544789450110 2.32544789450110
 2.32544789450110 0.00000000000000 2.32544789450110
 2.32544789450110 2.32544789450110 0.00000000000000
PRIMCOORD
 2 1
  9     0.00000000000000     0.00000000000000     0.00000000000000
  9     1.16272394725055     1.16272394725055     1.16272394725055
