CRYSTAL
PRIMVEC
 0.00000000000000 2.37671568870557 2.37671568870557
 2.37671568870557 0.00000000000000 2.37671568870557
 2.37671568870557 2.37671568870557 0.00000000000000
PRIMCOORD
 2 1
 26     0.00000000000000     0.00000000000000     0.00000000000000
 26     1.18835784435279     1.18835784435279     1.18835784435279
