CRYSTAL
PRIMVEC
 0.00000000000000 2.37671574462486 2.37671574462486
 2.37671574462486 0.00000000000000 2.37671574462486
 2.37671574462486 2.37671574462486 0.00000000000000
PRIMCOORD
 2 1
 26     0.00000000000000     0.00000000000000     0.00000000000000
 26     1.18835787231243     1.18835787231243     1.18835787231243
