CRYSTAL
PRIMVEC
 0.00000000000000 2.88861330555759 2.88861330555759
 2.88861330555759 0.00000000000000 2.88861330555759
 2.88861330555759 2.88861330555759 0.00000000000000
PRIMCOORD
 2 1
 100     0.00000000000000     0.00000000000000     0.00000000000000
 100     1.44430665277880     1.44430665277880     1.44430665277880
