CRYSTAL
PRIMVEC
 0.00000000000000 2.88861324643636 2.88861324643636
 2.88861324643636 0.00000000000000 2.88861324643636
 2.88861324643636 2.88861324643636 0.00000000000000
PRIMCOORD
 2 1
 100     0.00000000000000     0.00000000000000     0.00000000000000
 100     1.44430662321818     1.44430662321818     1.44430662321818
