CRYSTAL
PRIMVEC
 0.00000000000000 5.41747845916473 5.41747845916473
 5.41747845916473 0.00000000000000 5.41747845916473
 5.41747845916473 5.41747845916473 0.00000000000000
PRIMCOORD
 2 1
 87     0.00000000000000     0.00000000000000     0.00000000000000
 87     2.70873922958237     2.70873922958237     2.70873922958237
