CRYSTAL
PRIMVEC
 0.00000000000000 5.41747850276614 5.41747850276614
 5.41747850276614 0.00000000000000 5.41747850276614
 5.41747850276614 5.41747850276614 0.00000000000000
PRIMCOORD
 2 1
 87     0.00000000000000     0.00000000000000     0.00000000000000
 87     2.70873925138307     2.70873925138307     2.70873925138307
