CRYSTAL
PRIMVEC
 0.00000000000000 2.83915667535923 2.83915667535923
 2.83915667535923 0.00000000000000 2.83915667535923
 2.83915667535923 2.83915667535923 0.00000000000000
PRIMCOORD
 2 1
 31     0.00000000000000     0.00000000000000     0.00000000000000
 31     1.41957833767962     1.41957833767962     1.41957833767962
