CRYSTAL
PRIMVEC
 0.00000000000000 2.83915670613714 2.83915670613714
 2.83915670613714 0.00000000000000 2.83915670613714
 2.83915670613714 2.83915670613714 0.00000000000000
PRIMCOORD
 2 1
 31     0.00000000000000     0.00000000000000     0.00000000000000
 31     1.41957835306857     1.41957835306857     1.41957835306857
