CRYSTAL
PRIMVEC
 0.00000000000000 2.66799468031266 2.66799468031266
 2.66799468031266 0.00000000000000 2.66799468031266
 2.66799468031266 2.66799468031266 0.00000000000000
PRIMCOORD
 2 1
 64     0.00000000000000     0.00000000000000     0.00000000000000
 64     1.33399734015633     1.33399734015633     1.33399734015633
