CRYSTAL
PRIMVEC
 0.00000000000000 2.66799481207786 2.66799481207786
 2.66799481207786 0.00000000000000 2.66799481207786
 2.66799481207786 2.66799481207786 0.00000000000000
PRIMCOORD
 2 1
 64     0.00000000000000     0.00000000000000     0.00000000000000
 64     1.33399740603893     1.33399740603893     1.33399740603893
