CRYSTAL
PRIMVEC
 0.00000000000000 2.81169761587007 2.81169761587007
 2.81169761587007 0.00000000000000 2.81169761587007
 2.81169761587007 2.81169761587007 0.00000000000000
PRIMCOORD
 2 1
 32     0.00000000000000     0.00000000000000     0.00000000000000
 32     1.40584880793503     1.40584880793503     1.40584880793503
