CRYSTAL
PRIMVEC
 0.00000000000000 2.81169765418829 2.81169765418829
 2.81169765418829 0.00000000000000 2.81169765418829
 2.81169765418829 2.81169765418829 0.00000000000000
PRIMCOORD
 2 1
 32     0.00000000000000     0.00000000000000     0.00000000000000
 32     1.40584882709415     1.40584882709415     1.40584882709415
