CRYSTAL
PRIMVEC
 0.00000000000000 1.49487599021241 1.49487599021241
 1.49487599021241 0.00000000000000 1.49487599021241
 1.49487599021241 1.49487599021241 0.00000000000000
PRIMCOORD
 2 1
  1     0.00000000000000     0.00000000000000     0.00000000000000
  1     0.74743799510620     0.74743799510620     0.74743799510620
