CRYSTAL
PRIMVEC
 0.00000000000000 1.49487598808664 1.49487598808664
 1.49487598808664 0.00000000000000 1.49487598808664
 1.49487598808664 1.49487598808664 0.00000000000000
PRIMCOORD
 2 1
  1     0.00000000000000     0.00000000000000     0.00000000000000
  1     0.74743799404332     0.74743799404332     0.74743799404332
