CRYSTAL
PRIMVEC
 0.00000000000000 2.74507704014176 2.74507704014176
 2.74507704014176 0.00000000000000 2.74507704014176
 2.74507704014176 2.74507704014176 0.00000000000000
PRIMCOORD
 2 1
  2     0.00000000000000     0.00000000000000     0.00000000000000
  2     1.37253852007088     1.37253852007088     1.37253852007088
