CRYSTAL
PRIMVEC
 0.00000000000000 2.74507705438472 2.74507705438472
 2.74507705438472 0.00000000000000 2.74507705438472
 2.74507705438472 2.74507705438472 0.00000000000000
PRIMCOORD
 2 1
  2     0.00000000000000     0.00000000000000     0.00000000000000
  2     1.37253852719236     1.37253852719236     1.37253852719236
