CRYSTAL
PRIMVEC
 0.00000000000000 3.11068519394880 3.11068519394880
 3.11068519394880 0.00000000000000 3.11068519394880
 3.11068519394880 3.11068519394880 0.00000000000000
PRIMCOORD
 2 1
 72     0.00000000000000     0.00000000000000     0.00000000000000
 72     1.55534259697440     1.55534259697440     1.55534259697440
