CRYSTAL
PRIMVEC
 0.00000000000000 3.11068517750962 3.11068517750962
 3.11068517750962 0.00000000000000 3.11068517750962
 3.11068517750962 3.11068517750962 0.00000000000000
PRIMCOORD
 2 1
 72     0.00000000000000     0.00000000000000     0.00000000000000
 72     1.55534258875481     1.55534258875481     1.55534258875481
