CRYSTAL
PRIMVEC
 0.00000000000000 3.22118457464199 3.22118457464199
 3.22118457464199 0.00000000000000 3.22118457464199
 3.22118457464199 3.22118457464199 0.00000000000000
PRIMCOORD
 2 1
 80     0.00000000000000     0.00000000000000     0.00000000000000
 80     1.61059228732100     1.61059228732100     1.61059228732100
