CRYSTAL
PRIMVEC
 0.00000000000000 3.22118453439544 3.22118453439544
 3.22118453439544 0.00000000000000 3.22118453439544
 3.22118453439544 3.22118453439544 0.00000000000000
PRIMCOORD
 2 1
 80     0.00000000000000     0.00000000000000     0.00000000000000
 80     1.61059226719772     1.61059226719772     1.61059226719772
