CRYSTAL
PRIMVEC
 0.00000000000000 2.76046513193623 2.76046513193623
 2.76046513193623 0.00000000000000 2.76046513193623
 2.76046513193623 2.76046513193623 0.00000000000000
PRIMCOORD
 2 1
 67     0.00000000000000     0.00000000000000     0.00000000000000
 67     1.38023256596811     1.38023256596811     1.38023256596811
