CRYSTAL
PRIMVEC
 0.00000000000000 2.76046510385722 2.76046510385722
 2.76046510385722 0.00000000000000 2.76046510385722
 2.76046510385722 2.76046510385722 0.00000000000000
PRIMCOORD
 2 1
 67     0.00000000000000     0.00000000000000     0.00000000000000
 67     1.38023255192861     1.38023255192861     1.38023255192861
