CRYSTAL
PRIMVEC
 0.00000000000000 3.77381119550336 3.77381119550336
 3.77381119550336 0.00000000000000 3.77381119550336
 3.77381119550336 3.77381119550336 0.00000000000000
PRIMCOORD
 2 1
 53     0.00000000000000     0.00000000000000     0.00000000000000
 53     1.88690559775168     1.88690559775168     1.88690559775168
