CRYSTAL
PRIMVEC
 0.00000000000000 3.23238647222929 3.23238647222929
 3.23238647222929 0.00000000000000 3.23238647222929
 3.23238647222929 3.23238647222929 0.00000000000000
PRIMCOORD
 2 1
 49     0.00000000000000     0.00000000000000     0.00000000000000
 49     1.61619323611464     1.61619323611464     1.61619323611464
