CRYSTAL
PRIMVEC
 0.00000000000000 3.23238646270052 3.23238646270052
 3.23238646270052 0.00000000000000 3.23238646270052
 3.23238646270052 3.23238646270052 0.00000000000000
PRIMCOORD
 2 1
 49     0.00000000000000     0.00000000000000     0.00000000000000
 49     1.61619323135026     1.61619323135026     1.61619323135026
