CRYSTAL
PRIMVEC
 0.00000000000000 2.73827848540147 2.73827848540147
 2.73827848540147 0.00000000000000 2.73827848540147
 2.73827848540147 2.73827848540147 0.00000000000000
PRIMCOORD
 2 1
 77     0.00000000000000     0.00000000000000     0.00000000000000
 77     1.36913924270074     1.36913924270074     1.36913924270074
