CRYSTAL
PRIMVEC
 0.00000000000000 2.73827851458479 2.73827851458479
 2.73827851458479 0.00000000000000 2.73827851458479
 2.73827851458479 2.73827851458479 0.00000000000000
PRIMCOORD
 2 1
 77     0.00000000000000     0.00000000000000     0.00000000000000
 77     1.36913925729240     1.36913925729240     1.36913925729240
