CRYSTAL
PRIMVEC
 0.00000000000000 4.58170619689646 4.58170619689646
 4.58170619689646 0.00000000000000 4.58170619689646
 4.58170619689646 4.58170619689646 0.00000000000000
PRIMCOORD
 2 1
 19     0.00000000000000     0.00000000000000     0.00000000000000
 19     2.29085309844823     2.29085309844823     2.29085309844823
