CRYSTAL
PRIMVEC
 0.00000000000000 4.58170620289590 4.58170620289590
 4.58170620289590 0.00000000000000 4.58170620289590
 4.58170620289590 4.58170620289590 0.00000000000000
PRIMCOORD
 2 1
 19     0.00000000000000     0.00000000000000     0.00000000000000
 19     2.29085310144795     2.29085310144795     2.29085310144795
