CRYSTAL
PRIMVEC
 0.00000000000000 4.23389099743996 4.23389099743996
 4.23389099743996 0.00000000000000 4.23389099743996
 4.23389099743996 4.23389099743996 0.00000000000000
PRIMCOORD
 2 1
 36     0.00000000000000     0.00000000000000     0.00000000000000
 36     2.11694549871998     2.11694549871998     2.11694549871998
