CRYSTAL
PRIMVEC
 0.00000000000000 3.25851097122430 3.25851097122430
 3.25851097122430 0.00000000000000 3.25851097122430
 3.25851097122430 3.25851097122430 0.00000000000000
PRIMCOORD
 2 1
 57     0.00000000000000     0.00000000000000     0.00000000000000
 57     1.62925548561215     1.62925548561215     1.62925548561215
