CRYSTAL
PRIMVEC
 0.00000000000000 3.25851072298287 3.25851072298287
 3.25851072298287 0.00000000000000 3.25851072298287
 3.25851072298287 3.25851072298287 0.00000000000000
PRIMCOORD
 2 1
 57     0.00000000000000     0.00000000000000     0.00000000000000
 57     1.62925536149143     1.62925536149143     1.62925536149143
