CRYSTAL
PRIMVEC
 0.00000000000000 2.84885401112965 2.84885401112965
 2.84885401112965 0.00000000000000 2.84885401112965
 2.84885401112965 2.84885401112965 0.00000000000000
PRIMCOORD
 2 1
  3     0.00000000000000     0.00000000000000     0.00000000000000
  3     1.42442700556483     1.42442700556483     1.42442700556483
