CRYSTAL
PRIMVEC
 0.00000000000000 3.58905349682365 3.58905349682365
 3.58905349682365 0.00000000000000 3.58905349682365
 3.58905349682365 3.58905349682365 0.00000000000000
PRIMCOORD
 2 1
 103     0.00000000000000     0.00000000000000     0.00000000000000
 103     1.79452674841183     1.79452674841183     1.79452674841183
