CRYSTAL
PRIMVEC
 0.00000000000000 3.58905351028254 3.58905351028254
 3.58905351028254 0.00000000000000 3.58905351028254
 3.58905351028254 3.58905351028254 0.00000000000000
PRIMCOORD
 2 1
 103     0.00000000000000     0.00000000000000     0.00000000000000
 103     1.79452675514127     1.79452675514127     1.79452675514127
