CRYSTAL
PRIMVEC
 0.00000000000000 3.43862611985679 3.43862611985679
 3.43862611985679 0.00000000000000 3.43862611985679
 3.43862611985679 3.43862611985679 0.00000000000000
PRIMCOORD
 2 1
 71     0.00000000000000     0.00000000000000     0.00000000000000
 71     1.71931305992839     1.71931305992839     1.71931305992839
