CRYSTAL
PRIMVEC
 0.00000000000000 3.43862613554439 3.43862613554439
 3.43862613554439 0.00000000000000 3.43862613554439
 3.43862613554439 3.43862613554439 0.00000000000000
PRIMCOORD
 2 1
 71     0.00000000000000     0.00000000000000     0.00000000000000
 71     1.71931306777220     1.71931306777220     1.71931306777220
