CRYSTAL
PRIMVEC
 0.00000000000000 3.24044259897986 3.24044259897986
 3.24044259897986 0.00000000000000 3.24044259897986
 3.24044259897986 3.24044259897986 0.00000000000000
PRIMCOORD
 2 1
 101     0.00000000000000     0.00000000000000     0.00000000000000
 101     1.62022129948993     1.62022129948993     1.62022129948993
