CRYSTAL
PRIMVEC
 0.00000000000000 3.24044128484815 3.24044128484815
 3.24044128484815 0.00000000000000 3.24044128484815
 3.24044128484815 3.24044128484815 0.00000000000000
PRIMCOORD
 2 1
 101     0.00000000000000     0.00000000000000     0.00000000000000
 101     1.62022064242408     1.62022064242408     1.62022064242408
