CRYSTAL
PRIMVEC
 0.00000000000000 3.34836306161714 3.34836306161714
 3.34836306161714 0.00000000000000 3.34836306161714
 3.34836306161714 3.34836306161714 0.00000000000000
PRIMCOORD
 2 1
 12     0.00000000000000     0.00000000000000     0.00000000000000
 12     1.67418153080857     1.67418153080857     1.67418153080857
