CRYSTAL
PRIMVEC
 0.00000000000000 3.34836307362711 3.34836307362711
 3.34836307362711 0.00000000000000 3.34836307362711
 3.34836307362711 3.34836307362711 0.00000000000000
PRIMCOORD
 2 1
 12     0.00000000000000     0.00000000000000     0.00000000000000
 12     1.67418153681355     1.67418153681355     1.67418153681355
