CRYSTAL
PRIMVEC
 0.00000000000000 2.41503144534940 2.41503144534940
 2.41503144534940 0.00000000000000 2.41503144534940
 2.41503144534940 2.41503144534940 0.00000000000000
PRIMCOORD
 2 1
 25     0.00000000000000     0.00000000000000     0.00000000000000
 25     1.20751572267470     1.20751572267470     1.20751572267470
