CRYSTAL
PRIMVEC
 0.00000000000000 2.41503145167575 2.41503145167575
 2.41503145167575 0.00000000000000 2.41503145167575
 2.41503145167575 2.41503145167575 0.00000000000000
PRIMCOORD
 2 1
 25     0.00000000000000     0.00000000000000     0.00000000000000
 25     1.20751572583787     1.20751572583787     1.20751572583787
