CRYSTAL
PRIMVEC
 0.00000000000000 2.78471380563859 2.78471380563859
 2.78471380563859 0.00000000000000 2.78471380563859
 2.78471380563859 2.78471380563859 0.00000000000000
PRIMCOORD
 2 1
 42     0.00000000000000     0.00000000000000     0.00000000000000
 42     1.39235690281929     1.39235690281929     1.39235690281929
