CRYSTAL
PRIMVEC
 0.00000000000000 2.78471381453217 2.78471381453217
 2.78471381453217 0.00000000000000 2.78471381453217
 2.78471381453217 2.78471381453217 0.00000000000000
PRIMCOORD
 2 1
 42     0.00000000000000     0.00000000000000     0.00000000000000
 42     1.39235690726608     1.39235690726608     1.39235690726608
