CRYSTAL
PRIMVEC
 0.00000000000000 2.04625465963994 2.04625465963994
 2.04625465963994 0.00000000000000 2.04625465963994
 2.04625465963994 2.04625465963994 0.00000000000000
PRIMCOORD
 2 1
  7     0.00000000000000     0.00000000000000     0.00000000000000
  7     1.02312732981997     1.02312732981997     1.02312732981997
