CRYSTAL
PRIMVEC
 0.00000000000000 2.04625465776601 2.04625465776601
 2.04625465776601 0.00000000000000 2.04625465776601
 2.04625465776601 2.04625465776601 0.00000000000000
PRIMCOORD
 2 1
  7     0.00000000000000     0.00000000000000     0.00000000000000
  7     1.02312732888300     1.02312732888300     1.02312732888300
