CRYSTAL
PRIMVEC
 0.00000000000000 3.64730162082393 3.64730162082393
 3.64730162082393 0.00000000000000 3.64730162082393
 3.64730162082393 3.64730162082393 0.00000000000000
PRIMCOORD
 2 1
 11     0.00000000000000     0.00000000000000     0.00000000000000
 11     1.82365081041196     1.82365081041196     1.82365081041196
