CRYSTAL
PRIMVEC
 0.00000000000000 3.64730161320228 3.64730161320228
 3.64730161320228 0.00000000000000 3.64730161320228
 3.64730161320228 3.64730161320228 0.00000000000000
PRIMCOORD
 2 1
 11     0.00000000000000     0.00000000000000     0.00000000000000
 11     1.82365080660114     1.82365080660114     1.82365080660114
