CRYSTAL
PRIMVEC
 0.00000000000000 2.87675882930152 2.87675882930152
 2.87675882930152 0.00000000000000 2.87675882930152
 2.87675882930152 2.87675882930152 0.00000000000000
PRIMCOORD
 2 1
 41     0.00000000000000     0.00000000000000     0.00000000000000
 41     1.43837941465076     1.43837941465076     1.43837941465076
