CRYSTAL
PRIMVEC
 0.00000000000000 2.87675881665290 2.87675881665290
 2.87675881665290 0.00000000000000 2.87675881665290
 2.87675881665290 2.87675881665290 0.00000000000000
PRIMCOORD
 2 1
 41     0.00000000000000     0.00000000000000     0.00000000000000
 41     1.43837940832645     1.43837940832645     1.43837940832645
