CRYSTAL
PRIMVEC
 0.00000000000000 2.80462617442483 2.80462617442483
 2.80462617442483 0.00000000000000 2.80462617442483
 2.80462617442483 2.80462617442483 0.00000000000000
PRIMCOORD
 2 1
 60     0.00000000000000     0.00000000000000     0.00000000000000
 60     1.40231308721241     1.40231308721241     1.40231308721241
