CRYSTAL
PRIMVEC
 0.00000000000000 2.80462617915540 2.80462617915540
 2.80462617915540 0.00000000000000 2.80462617915540
 2.80462617915540 2.80462617915540 0.00000000000000
PRIMCOORD
 2 1
 60     0.00000000000000     0.00000000000000     0.00000000000000
 60     1.40231308957770     1.40231308957770     1.40231308957770
