CRYSTAL
PRIMVEC
 0.00000000000000 3.03494315153818 3.03494315153818
 3.03494315153818 0.00000000000000 3.03494315153818
 3.03494315153818 3.03494315153818 0.00000000000000
PRIMCOORD
 2 1
 10     0.00000000000000     0.00000000000000     0.00000000000000
 10     1.51747157576909     1.51747157576909     1.51747157576909
