CRYSTAL
PRIMVEC
 0.00000000000000 3.03494312536111 3.03494312536111
 3.03494312536111 0.00000000000000 3.03494312536111
 3.03494312536111 3.03494312536111 0.00000000000000
PRIMCOORD
 2 1
 10     0.00000000000000     0.00000000000000     0.00000000000000
 10     1.51747156268055     1.51747156268055     1.51747156268055
