CRYSTAL
PRIMVEC
 0.00000000000000 2.46685434333350 2.46685434333350
 2.46685434333350 0.00000000000000 2.46685434333350
 2.46685434333350 2.46685434333350 0.00000000000000
PRIMCOORD
 2 1
 28     0.00000000000000     0.00000000000000     0.00000000000000
 28     1.23342717166675     1.23342717166675     1.23342717166675
