CRYSTAL
PRIMVEC
 0.00000000000000 2.46685430447488 2.46685430447488
 2.46685430447488 0.00000000000000 2.46685430447488
 2.46685430447488 2.46685430447488 0.00000000000000
PRIMCOORD
 2 1
 28     0.00000000000000     0.00000000000000     0.00000000000000
 28     1.23342715223744     1.23342715223744     1.23342715223744
