CRYSTAL
PRIMVEC
 0.00000000000000 4.34799178669197 4.34799178669197
 4.34799178669197 0.00000000000000 4.34799178669197
 4.34799178669197 4.34799178669197 0.00000000000000
PRIMCOORD
 2 1
 102     0.00000000000000     0.00000000000000     0.00000000000000
 102     2.17399589334598     2.17399589334598     2.17399589334598
