CRYSTAL
PRIMVEC
 0.00000000000000 4.34799124283376 4.34799124283376
 4.34799124283376 0.00000000000000 4.34799124283376
 4.34799124283376 4.34799124283376 0.00000000000000
PRIMCOORD
 2 1
 102     0.00000000000000     0.00000000000000     0.00000000000000
 102     2.17399562141688     2.17399562141688     2.17399562141688
