CRYSTAL
PRIMVEC
 0.00000000000000 2.73756269330491 2.73756269330491
 2.73756269330491 0.00000000000000 2.73756269330491
 2.73756269330491 2.73756269330491 0.00000000000000
PRIMCOORD
 2 1
 93     0.00000000000000     0.00000000000000     0.00000000000000
 93     1.36878134665245     1.36878134665245     1.36878134665245
