CRYSTAL
PRIMVEC
 0.00000000000000 2.73756258093178 2.73756258093178
 2.73756258093178 0.00000000000000 2.73756258093178
 2.73756258093178 2.73756258093178 0.00000000000000
PRIMCOORD
 2 1
 93     0.00000000000000     0.00000000000000     0.00000000000000
 93     1.36878129046589     1.36878129046589     1.36878129046589
