CRYSTAL
PRIMVEC
 0.00000000000000 2.14501853934543 2.14501853934543
 2.14501853934543 0.00000000000000 2.14501853934543
 2.14501853934543 2.14501853934543 0.00000000000000
PRIMCOORD
 2 1
  8     0.00000000000000     0.00000000000000     0.00000000000000
  8     1.07250926967271     1.07250926967271     1.07250926967271
