CRYSTAL
PRIMVEC
 0.00000000000000 2.73658939883630 2.73658939883630
 2.73658939883630 0.00000000000000 2.73658939883630
 2.73658939883630 2.73658939883630 0.00000000000000
PRIMCOORD
 2 1
 76     0.00000000000000     0.00000000000000     0.00000000000000
 76     1.36829469941815     1.36829469941815     1.36829469941815
