CRYSTAL
PRIMVEC
 0.00000000000000 2.73658943612362 2.73658943612362
 2.73658943612362 0.00000000000000 2.73658943612362
 2.73658943612362 2.73658943612362 0.00000000000000
PRIMCOORD
 2 1
 76     0.00000000000000     0.00000000000000     0.00000000000000
 76     1.36829471806181     1.36829471806181     1.36829471806181
