CRYSTAL
PRIMVEC
 0.00000000000000 2.67212948133907 2.67212948133907
 2.67212948133907 0.00000000000000 2.67212948133907
 2.67212948133907 2.67212948133907 0.00000000000000
PRIMCOORD
 2 1
 15     0.00000000000000     0.00000000000000     0.00000000000000
 15     1.33606474066954     1.33606474066954     1.33606474066954
