CRYSTAL
PRIMVEC
 0.00000000000000 2.67212955600038 2.67212955600038
 2.67212955600038 0.00000000000000 2.67212955600038
 2.67212955600038 2.67212955600038 0.00000000000000
PRIMCOORD
 2 1
 15     0.00000000000000     0.00000000000000     0.00000000000000
 15     1.33606477800019     1.33606477800019     1.33606477800019
