CRYSTAL
PRIMVEC
 0.00000000000000 3.05831373379666 3.05831373379666
 3.05831373379666 0.00000000000000 3.05831373379666
 3.05831373379666 3.05831373379666 0.00000000000000
PRIMCOORD
 2 1
 91     0.00000000000000     0.00000000000000     0.00000000000000
 91     1.52915686689833     1.52915686689833     1.52915686689833
