CRYSTAL
PRIMVEC
 0.00000000000000 3.05831345225336 3.05831345225336
 3.05831345225336 0.00000000000000 3.05831345225336
 3.05831345225336 3.05831345225336 0.00000000000000
PRIMCOORD
 2 1
 91     0.00000000000000     0.00000000000000     0.00000000000000
 91     1.52915672612668     1.52915672612668     1.52915672612668
