CRYSTAL
PRIMVEC
 0.00000000000000 3.41486754577195 3.41486754577195
 3.41486754577195 0.00000000000000 3.41486754577195
 3.41486754577195 3.41486754577195 0.00000000000000
PRIMCOORD
 2 1
 82     0.00000000000000     0.00000000000000     0.00000000000000
 82     1.70743377288597     1.70743377288597     1.70743377288597
