CRYSTAL
PRIMVEC
 0.00000000000000 3.41486755042062 3.41486755042062
 3.41486755042062 0.00000000000000 3.41486755042062
 3.41486755042062 3.41486755042062 0.00000000000000
PRIMCOORD
 2 1
 82     0.00000000000000     0.00000000000000     0.00000000000000
 82     1.70743377521031     1.70743377521031     1.70743377521031
