CRYSTAL
PRIMVEC
 0.00000000000000 2.80821868749112 2.80821868749112
 2.80821868749112 0.00000000000000 2.80821868749112
 2.80821868749112 2.80821868749112 0.00000000000000
PRIMCOORD
 2 1
 46     0.00000000000000     0.00000000000000     0.00000000000000
 46     1.40410934374556     1.40410934374556     1.40410934374556
