CRYSTAL
PRIMVEC
 0.00000000000000 2.80821871597469 2.80821871597469
 2.80821871597469 0.00000000000000 2.80821871597469
 2.80821871597469 2.80821871597469 0.00000000000000
PRIMCOORD
 2 1
 46     0.00000000000000     0.00000000000000     0.00000000000000
 46     1.40410935798735     1.40410935798735     1.40410935798735
