CRYSTAL
PRIMVEC
 0.00000000000000 2.72389659913566 2.72389659913566
 2.72389659913566 0.00000000000000 2.72389659913566
 2.72389659913566 2.72389659913566 0.00000000000000
PRIMCOORD
 2 1
 61     0.00000000000000     0.00000000000000     0.00000000000000
 61     1.36194829956783     1.36194829956783     1.36194829956783
