CRYSTAL
PRIMVEC
 0.00000000000000 2.72389658966094 2.72389658966094
 2.72389658966094 0.00000000000000 2.72389658966094
 2.72389658966094 2.72389658966094 0.00000000000000
PRIMCOORD
 2 1
 61     0.00000000000000     0.00000000000000     0.00000000000000
 61     1.36194829483047     1.36194829483047     1.36194829483047
