CRYSTAL
PRIMVEC
 0.00000000000000 3.64989456941281 3.64989456941281
 3.64989456941281 0.00000000000000 3.64989456941281
 3.64989456941281 3.64989456941281 0.00000000000000
PRIMCOORD
 2 1
 84     0.00000000000000     0.00000000000000     0.00000000000000
 84     1.82494728470641     1.82494728470641     1.82494728470641
