CRYSTAL
PRIMVEC
 0.00000000000000 3.64989461012489 3.64989461012489
 3.64989461012489 0.00000000000000 3.64989461012489
 3.64989461012489 3.64989461012489 0.00000000000000
PRIMCOORD
 2 1
 84     0.00000000000000     0.00000000000000     0.00000000000000
 84     1.82494730506244     1.82494730506244     1.82494730506244
