CRYSTAL
PRIMVEC
 0.00000000000000 2.90890268539799 2.90890268539799
 2.90890268539799 0.00000000000000 2.90890268539799
 2.90890268539799 2.90890268539799 0.00000000000000
PRIMCOORD
 2 1
 59     0.00000000000000     0.00000000000000     0.00000000000000
 59     1.45445134269899     1.45445134269899     1.45445134269899
