CRYSTAL
PRIMVEC
 0.00000000000000 2.90890267685652 2.90890267685652
 2.90890267685652 0.00000000000000 2.90890267685652
 2.90890267685652 2.90890267685652 0.00000000000000
PRIMCOORD
 2 1
 59     0.00000000000000     0.00000000000000     0.00000000000000
 59     1.45445133842826     1.45445133842826     1.45445133842826
