CRYSTAL
PRIMVEC
 0.00000000000000 2.82351958120882 2.82351958120882
 2.82351958120882 0.00000000000000 2.82351958120882
 2.82351958120882 2.82351958120882 0.00000000000000
PRIMCOORD
 2 1
 78     0.00000000000000     0.00000000000000     0.00000000000000
 78     1.41175979060441     1.41175979060441     1.41175979060441
