CRYSTAL
PRIMVEC
 0.00000000000000 2.82351957140067 2.82351957140067
 2.82351957140067 0.00000000000000 2.82351957140067
 2.82351957140067 2.82351957140067 0.00000000000000
PRIMCOORD
 2 1
 78     0.00000000000000     0.00000000000000     0.00000000000000
 78     1.41175978570034     1.41175978570034     1.41175978570034
