CRYSTAL
PRIMVEC
 0.00000000000000 2.67683471079016 2.67683471079016
 2.67683471079016 0.00000000000000 2.67683471079016
 2.67683471079016 2.67683471079016 0.00000000000000
PRIMCOORD
 2 1
 94     0.00000000000000     0.00000000000000     0.00000000000000
 94     1.33841735539508     1.33841735539508     1.33841735539508
