CRYSTAL
PRIMVEC
 0.00000000000000 2.67683481928058 2.67683481928058
 2.67683481928058 0.00000000000000 2.67683481928058
 2.67683481928058 2.67683481928058 0.00000000000000
PRIMCOORD
 2 1
 94     0.00000000000000     0.00000000000000     0.00000000000000
 94     1.33841740964029     1.33841740964029     1.33841740964029
