CRYSTAL
PRIMVEC
 0.00000000000000 5.16401043260305 5.16401043260305
 5.16401043260305 0.00000000000000 5.16401043260305
 5.16401043260305 5.16401043260305 0.00000000000000
PRIMCOORD
 2 1
 88     0.00000000000000     0.00000000000000     0.00000000000000
 88     2.58200521630152     2.58200521630152     2.58200521630152
