CRYSTAL
PRIMVEC
 0.00000000000000 5.16401066050366 5.16401066050366
 5.16401066050366 0.00000000000000 5.16401066050366
 5.16401066050366 5.16401066050366 0.00000000000000
PRIMCOORD
 2 1
 88     0.00000000000000     0.00000000000000     0.00000000000000
 88     2.58200533025183     2.58200533025183     2.58200533025183
