CRYSTAL
PRIMVEC
 0.00000000000000 4.92588062295973 4.92588062295973
 4.92588062295973 0.00000000000000 4.92588062295973
 4.92588062295973 4.92588062295973 0.00000000000000
PRIMCOORD
 2 1
 37     0.00000000000000     0.00000000000000     0.00000000000000
 37     2.46294031147987     2.46294031147987     2.46294031147987
