CRYSTAL
PRIMVEC
 0.00000000000000 2.78053658272822 2.78053658272822
 2.78053658272822 0.00000000000000 2.78053658272822
 2.78053658272822 2.78053658272822 0.00000000000000
PRIMCOORD
 2 1
 75     0.00000000000000     0.00000000000000     0.00000000000000
 75     1.39026829136411     1.39026829136411     1.39026829136411
