CRYSTAL
PRIMVEC
 0.00000000000000 2.78053657904015 2.78053657904015
 2.78053657904015 0.00000000000000 2.78053657904015
 2.78053657904015 2.78053657904015 0.00000000000000
PRIMCOORD
 2 1
 75     0.00000000000000     0.00000000000000     0.00000000000000
 75     1.39026828952008     1.39026828952008     1.39026828952008
