CRYSTAL
PRIMVEC
 0.00000000000000 2.69534009436522 2.69534009436522
 2.69534009436522 0.00000000000000 2.69534009436522
 2.69534009436522 2.69534009436522 0.00000000000000
PRIMCOORD
 2 1
 45     0.00000000000000     0.00000000000000     0.00000000000000
 45     1.34767004718261     1.34767004718261     1.34767004718261
