CRYSTAL
PRIMVEC
 0.00000000000000 2.69534009926166 2.69534009926166
 2.69534009926166 0.00000000000000 2.69534009926166
 2.69534009926166 2.69534009926166 0.00000000000000
PRIMCOORD
 2 1
 45     0.00000000000000     0.00000000000000     0.00000000000000
 45     1.34767004963083     1.34767004963083     1.34767004963083
