CRYSTAL
PRIMVEC
 0.00000000000000 4.79724393341441 4.79724393341441
 4.79724393341441 0.00000000000000 4.79724393341441
 4.79724393341441 4.79724393341441 0.00000000000000
PRIMCOORD
 2 1
 86     0.00000000000000     0.00000000000000     0.00000000000000
 86     2.39862196670720     2.39862196670720     2.39862196670720
