CRYSTAL
PRIMVEC
 0.00000000000000 4.79724388859370 4.79724388859370
 4.79724388859370 0.00000000000000 4.79724388859370
 4.79724388859370 4.79724388859370 0.00000000000000
PRIMCOORD
 2 1
 86     0.00000000000000     0.00000000000000     0.00000000000000
 86     2.39862194429685     2.39862194429685     2.39862194429685
