CRYSTAL
PRIMVEC
 0.00000000000000 2.67858020019130 2.67858020019130
 2.67858020019130 0.00000000000000 2.67858020019130
 2.67858020019130 2.67858020019130 0.00000000000000
PRIMCOORD
 2 1
 44     0.00000000000000     0.00000000000000     0.00000000000000
 44     1.33929010009565     1.33929010009565     1.33929010009565
