CRYSTAL
PRIMVEC
 0.00000000000000 2.67858019436745 2.67858019436745
 2.67858019436745 0.00000000000000 2.67858019436745
 2.67858019436745 2.67858019436745 0.00000000000000
PRIMCOORD
 2 1
 44     0.00000000000000     0.00000000000000     0.00000000000000
 44     1.33929009718372     1.33929009718372     1.33929009718372
