CRYSTAL
PRIMVEC
 0.00000000000000 2.81744484319875 2.81744484319875
 2.81744484319875 0.00000000000000 2.81744484319875
 2.81744484319875 2.81744484319875 0.00000000000000
PRIMCOORD
 2 1
 16     0.00000000000000     0.00000000000000     0.00000000000000
 16     1.40872242159937     1.40872242159937     1.40872242159937
