CRYSTAL
PRIMVEC
 0.00000000000000 2.81744483319463 2.81744483319463
 2.81744483319463 0.00000000000000 2.81744483319463
 2.81744483319463 2.81744483319463 0.00000000000000
PRIMCOORD
 2 1
 16     0.00000000000000     0.00000000000000     0.00000000000000
 16     1.40872241659731     1.40872241659731     1.40872241659731
