CRYSTAL
PRIMVEC
 0.00000000000000 3.40724887905437 3.40724887905437
 3.40724887905437 0.00000000000000 3.40724887905437
 3.40724887905437 3.40724887905437 0.00000000000000
PRIMCOORD
 2 1
 51     0.00000000000000     0.00000000000000     0.00000000000000
 51     1.70362443952718     1.70362443952718     1.70362443952718
