CRYSTAL
PRIMVEC
 0.00000000000000 3.40724880274413 3.40724880274413
 3.40724880274413 0.00000000000000 3.40724880274413
 3.40724880274413 3.40724880274413 0.00000000000000
PRIMCOORD
 2 1
 51     0.00000000000000     0.00000000000000     0.00000000000000
 51     1.70362440137206     1.70362440137206     1.70362440137206
