CRYSTAL
PRIMVEC
 0.00000000000000 2.99178178771998 2.99178178771998
 2.99178178771998 0.00000000000000 2.99178178771998
 2.99178178771998 2.99178178771998 0.00000000000000
PRIMCOORD
 2 1
 21     0.00000000000000     0.00000000000000     0.00000000000000
 21     1.49589089385999     1.49589089385999     1.49589089385999
