CRYSTAL
PRIMVEC
 0.00000000000000 3.08471681549292 3.08471681549292
 3.08471681549292 0.00000000000000 3.08471681549292
 3.08471681549292 3.08471681549292 0.00000000000000
PRIMCOORD
 2 1
 34     0.00000000000000     0.00000000000000     0.00000000000000
 34     1.54235840774646     1.54235840774646     1.54235840774646
