CRYSTAL
PRIMVEC
 0.00000000000000 3.08471681876896 3.08471681876896
 3.08471681876896 0.00000000000000 3.08471681876896
 3.08471681876896 3.08471681876896 0.00000000000000
PRIMCOORD
 2 1
 34     0.00000000000000     0.00000000000000     0.00000000000000
 34     1.54235840938448     1.54235840938448     1.54235840938448
