CRYSTAL
PRIMVEC
 0.00000000000000 2.70057072640030 2.70057072640030
 2.70057072640030 0.00000000000000 2.70057072640030
 2.70057072640030 2.70057072640030 0.00000000000000
PRIMCOORD
 2 1
 14     0.00000000000000     0.00000000000000     0.00000000000000
 14     1.35028536320015     1.35028536320015     1.35028536320015
