CRYSTAL
PRIMVEC
 0.00000000000000 2.70057073426207 2.70057073426207
 2.70057073426207 0.00000000000000 2.70057073426207
 2.70057073426207 2.70057073426207 0.00000000000000
PRIMCOORD
 2 1
 14     0.00000000000000     0.00000000000000     0.00000000000000
 14     1.35028536713104     1.35028536713104     1.35028536713104
