CRYSTAL
PRIMVEC
 0.00000000000000 2.68633326507454 2.68633326507454
 2.68633326507454 0.00000000000000 2.68633326507454
 2.68633326507454 2.68633326507454 0.00000000000000
PRIMCOORD
 2 1
 62     0.00000000000000     0.00000000000000     0.00000000000000
 62     1.34316663253727     1.34316663253727     1.34316663253727
