CRYSTAL
PRIMVEC
 0.00000000000000 2.68633328878591 2.68633328878591
 2.68633328878591 0.00000000000000 2.68633328878591
 2.68633328878591 2.68633328878591 0.00000000000000
PRIMCOORD
 2 1
 62     0.00000000000000     0.00000000000000     0.00000000000000
 62     1.34316664439296     1.34316664439296     1.34316664439296
