CRYSTAL
PRIMVEC
 0.00000000000000 3.23709131450477 3.23709131450477
 3.23709131450477 0.00000000000000 3.23709131450477
 3.23709131450477 3.23709131450477 0.00000000000000
PRIMCOORD
 2 1
 50     0.00000000000000     0.00000000000000     0.00000000000000
 50     1.61854565725238     1.61854565725238     1.61854565725238
