CRYSTAL
PRIMVEC
 0.00000000000000 3.23709133220265 3.23709133220265
 3.23709133220265 0.00000000000000 3.23709133220265
 3.23709133220265 3.23709133220265 0.00000000000000
PRIMCOORD
 2 1
 50     0.00000000000000     0.00000000000000     0.00000000000000
 50     1.61854566610132     1.61854566610132     1.61854566610132
