CRYSTAL
PRIMVEC
 0.00000000000000 4.61527085526011 4.61527085526011
 4.61527085526011 0.00000000000000 4.61527085526011
 4.61527085526011 4.61527085526011 0.00000000000000
PRIMCOORD
 2 1
 38     0.00000000000000     0.00000000000000     0.00000000000000
 38     2.30763542763005     2.30763542763005     2.30763542763005
