CRYSTAL
PRIMVEC
 0.00000000000000 2.96456371277142 2.96456371277142
 2.96456371277142 0.00000000000000 2.96456371277142
 2.96456371277142 2.96456371277142 0.00000000000000
PRIMCOORD
 2 1
 73     0.00000000000000     0.00000000000000     0.00000000000000
 73     1.48228185638571     1.48228185638571     1.48228185638571
