CRYSTAL
PRIMVEC
 0.00000000000000 2.96456371348422 2.96456371348422
 2.96456371348422 0.00000000000000 2.96456371348422
 2.96456371348422 2.96456371348422 0.00000000000000
PRIMCOORD
 2 1
 73     0.00000000000000     0.00000000000000     0.00000000000000
 73     1.48228185674211     1.48228185674211     1.48228185674211
