CRYSTAL
PRIMVEC
 0.00000000000000 2.68471192070116 2.68471192070116
 2.68471192070116 0.00000000000000 2.68471192070116
 2.68471192070116 2.68471192070116 0.00000000000000
PRIMCOORD
 2 1
 65     0.00000000000000     0.00000000000000     0.00000000000000
 65     1.34235596035058     1.34235596035058     1.34235596035058
