CRYSTAL
PRIMVEC
 0.00000000000000 2.68471202439273 2.68471202439273
 2.68471202439273 0.00000000000000 2.68471202439273
 2.68471202439273 2.68471202439273 0.00000000000000
PRIMCOORD
 2 1
 65     0.00000000000000     0.00000000000000     0.00000000000000
 65     1.34235601219637     1.34235601219637     1.34235601219637
