CRYSTAL
PRIMVEC
 0.00000000000000 2.72130308222033 2.72130308222033
 2.72130308222033 0.00000000000000 2.72130308222033
 2.72130308222033 2.72130308222033 0.00000000000000
PRIMCOORD
 2 1
 43     0.00000000000000     0.00000000000000     0.00000000000000
 43     1.36065154111017     1.36065154111017     1.36065154111017
