CRYSTAL
PRIMVEC
 0.00000000000000 2.72130308810602 2.72130308810602
 2.72130308810602 0.00000000000000 2.72130308810602
 2.72130308810602 2.72130308810602 0.00000000000000
PRIMCOORD
 2 1
 43     0.00000000000000     0.00000000000000     0.00000000000000
 43     1.36065154405301     1.36065154405301     1.36065154405301
