CRYSTAL
PRIMVEC
 0.00000000000000 3.50127103786620 3.50127103786620
 3.50127103786620 0.00000000000000 3.50127103786620
 3.50127103786620 3.50127103786620 0.00000000000000
PRIMCOORD
 2 1
 52     0.00000000000000     0.00000000000000     0.00000000000000
 52     1.75063551893310     1.75063551893310     1.75063551893310
