CRYSTAL
PRIMVEC
 0.00000000000000 3.50127103944940 3.50127103944940
 3.50127103944940 0.00000000000000 3.50127103944940
 3.50127103944940 3.50127103944940 0.00000000000000
PRIMCOORD
 2 1
 52     0.00000000000000     0.00000000000000     0.00000000000000
 52     1.75063551972470     1.75063551972470     1.75063551972470
