CRYSTAL
PRIMVEC
 0.00000000000000 3.44811442786893 3.44811442786893
 3.44811442786893 0.00000000000000 3.44811442786893
 3.44811442786893 3.44811442786893 0.00000000000000
PRIMCOORD
 2 1
 90     0.00000000000000     0.00000000000000     0.00000000000000
 90     1.72405721393447     1.72405721393447     1.72405721393447
