CRYSTAL
PRIMVEC
 0.00000000000000 3.44808586082267 3.44808586082267
 3.44808586082267 0.00000000000000 3.44808586082267
 3.44808586082267 3.44808586082267 0.00000000000000
PRIMCOORD
 2 1
 90     0.00000000000000     0.00000000000000     0.00000000000000
 90     1.72404293041133     1.72404293041133     1.72404293041133
