CRYSTAL
PRIMVEC
 0.00000000000000 2.67311847799810 2.67311847799810
 2.67311847799810 0.00000000000000 2.67311847799810
 2.67311847799810 2.67311847799810 0.00000000000000
PRIMCOORD
 2 1
 22     0.00000000000000     0.00000000000000     0.00000000000000
 22     1.33655923899905     1.33655923899905     1.33655923899905
