CRYSTAL
PRIMVEC
 0.00000000000000 2.67311846690789 2.67311846690789
 2.67311846690789 0.00000000000000 2.67311846690789
 2.67311846690789 2.67311846690789 0.00000000000000
PRIMCOORD
 2 1
 22     0.00000000000000     0.00000000000000     0.00000000000000
 22     1.33655923345394     1.33655923345394     1.33655923345394
