CRYSTAL
PRIMVEC
 0.00000000000000 3.37396597885684 3.37396597885684
 3.37396597885684 0.00000000000000 3.37396597885684
 3.37396597885684 3.37396597885684 0.00000000000000
PRIMCOORD
 2 1
 81     0.00000000000000     0.00000000000000     0.00000000000000
 81     1.68698298942842     1.68698298942842     1.68698298942842
