CRYSTAL
PRIMVEC
 0.00000000000000 3.37396600242687 3.37396600242687
 3.37396600242687 0.00000000000000 3.37396600242687
 3.37396600242687 3.37396600242687 0.00000000000000
PRIMCOORD
 2 1
 81     0.00000000000000     0.00000000000000     0.00000000000000
 81     1.68698300121344     1.68698300121344     1.68698300121344
