CRYSTAL
PRIMVEC
 0.00000000000000 2.96418380941686 2.96418380941686
 2.96418380941686 0.00000000000000 2.96418380941686
 2.96418380941686 2.96418380941686 0.00000000000000
PRIMCOORD
 2 1
 69     0.00000000000000     0.00000000000000     0.00000000000000
 69     1.48209190470843     1.48209190470843     1.48209190470843
