CRYSTAL
PRIMVEC
 0.00000000000000 2.96418379864623 2.96418379864623
 2.96418379864623 0.00000000000000 2.96418379864623
 2.96418379864623 2.96418379864623 0.00000000000000
PRIMCOORD
 2 1
 69     0.00000000000000     0.00000000000000     0.00000000000000
 69     1.48209189932312     1.48209189932312     1.48209189932312
