CRYSTAL
PRIMVEC
 0.00000000000000 2.86891983462372 2.86891983462372
 2.86891983462372 0.00000000000000 2.86891983462372
 2.86891983462372 2.86891983462372 0.00000000000000
PRIMCOORD
 2 1
 92     0.00000000000000     0.00000000000000     0.00000000000000
 92     1.43445991731186     1.43445991731186     1.43445991731186
