CRYSTAL
PRIMVEC
 0.00000000000000 2.54774207515870 2.54774207515870
 2.54774207515870 0.00000000000000 2.54774207515870
 2.54774207515870 2.54774207515870 0.00000000000000
PRIMCOORD
 2 1
 23     0.00000000000000     0.00000000000000     0.00000000000000
 23     1.27387103757935     1.27387103757935     1.27387103757935
