CRYSTAL
PRIMVEC
 0.00000000000000 2.85501911184134 2.85501911184134
 2.85501911184134 0.00000000000000 2.85501911184134
 2.85501911184134 2.85501911184134 0.00000000000000
PRIMCOORD
 2 1
 74     0.00000000000000     0.00000000000000     0.00000000000000
 74     1.42750955592067     1.42750955592067     1.42750955592067
