CRYSTAL
PRIMVEC
 0.00000000000000 2.85501911355905 2.85501911355905
 2.85501911355905 0.00000000000000 2.85501911355905
 2.85501911355905 2.85501911355905 0.00000000000000
PRIMCOORD
 2 1
 74     0.00000000000000     0.00000000000000     0.00000000000000
 74     1.42750955677952     1.42750955677952     1.42750955677952
