CRYSTAL
PRIMVEC
 0.00000000000000 4.67066371431959 4.67066371431959
 4.67066371431959 0.00000000000000 4.67066371431959
 4.67066371431959 4.67066371431959 0.00000000000000
PRIMCOORD
 2 1
 54     0.00000000000000     0.00000000000000     0.00000000000000
 54     2.33533185715980     2.33533185715980     2.33533185715980
