CRYSTAL
PRIMVEC
 0.00000000000000 4.67066371705157 4.67066371705157
 4.67066371705157 0.00000000000000 4.67066371705157
 4.67066371705157 4.67066371705157 0.00000000000000
PRIMCOORD
 2 1
 54     0.00000000000000     0.00000000000000     0.00000000000000
 54     2.33533185852578     2.33533185852578     2.33533185852578
