CRYSTAL
PRIMVEC
 0.00000000000000 3.31764605468367 3.31764605468367
 3.31764605468367 0.00000000000000 3.31764605468367
 3.31764605468367 3.31764605468367 0.00000000000000
PRIMCOORD
 2 1
 39     0.00000000000000     0.00000000000000     0.00000000000000
 39     1.65882302734184     1.65882302734184     1.65882302734184
