CRYSTAL
PRIMVEC
 0.00000000000000 3.31764607100147 3.31764607100147
 3.31764607100147 0.00000000000000 3.31764607100147
 3.31764607100147 3.31764607100147 0.00000000000000
PRIMCOORD
 2 1
 39     0.00000000000000     0.00000000000000     0.00000000000000
 39     1.65882303550073     1.65882303550073     1.65882303550073
