CRYSTAL
PRIMVEC
 0.00000000000000 4.04679580227859 4.04679580227859
 4.04679580227859 0.00000000000000 4.04679580227859
 4.04679580227859 4.04679580227859 0.00000000000000
PRIMCOORD
 2 1
 70     0.00000000000000     0.00000000000000     0.00000000000000
 70     2.02339790113930     2.02339790113930     2.02339790113930
