CRYSTAL
PRIMVEC
 0.00000000000000 4.04679579389834 4.04679579389834
 4.04679579389834 0.00000000000000 4.04679579389834
 4.04679579389834 4.04679579389834 0.00000000000000
PRIMCOORD
 2 1
 70     0.00000000000000     0.00000000000000     0.00000000000000
 70     2.02339789694917     2.02339789694917     2.02339789694917
