CRYSTAL
PRIMVEC
 0.00000000000000 2.77609920655251 2.77609920655251
 2.77609920655251 0.00000000000000 2.77609920655251
 2.77609920655251 2.77609920655251 0.00000000000000
PRIMCOORD
 2 1
 30     0.00000000000000     0.00000000000000     0.00000000000000
 30     1.38804960327625     1.38804960327625     1.38804960327625
