CRYSTAL
PRIMVEC
 0.00000000000000 2.77609926541395 2.77609926541395
 2.77609926541395 0.00000000000000 2.77609926541395
 2.77609926541395 2.77609926541395 0.00000000000000
PRIMCOORD
 2 1
 30     0.00000000000000     0.00000000000000     0.00000000000000
 30     1.38804963270698     1.38804963270698     1.38804963270698
