CRYSTAL
PRIMVEC
 0.00000000000000 3.02632793745229 3.02632793745229
 3.02632793745229 0.00000000000000 3.02632793745229
 3.02632793745229 3.02632793745229 0.00000000000000
PRIMCOORD
 2 1
 40     0.00000000000000     0.00000000000000     0.00000000000000
 40     1.51316396872615     1.51316396872615     1.51316396872615
