CRYSTAL
PRIMVEC
 0.00000000000000 3.02632792381749 3.02632792381749
 3.02632792381749 0.00000000000000 3.02632792381749
 3.02632792381749 3.02632792381749 0.00000000000000
PRIMCOORD
 2 1
 40     0.00000000000000     0.00000000000000     0.00000000000000
 40     1.51316396190875     1.51316396190875     1.51316396190875
