CRYSTAL
# Primitive lattice vectors in Angstrom
PRIMVEC
 3.24898839178617 0.00000000000000 1.87580432259171
 1.08299613059539 3.06317563177117 1.87580432259171
 0.00000000000000 0.00000000000000 3.75160864518343
# Cartesian coordinates in Angstrom.
PRIMCOORD
 2 1
Ac     0.00000000000000     0.00000000000000     0.00000000000000
O     2.16599226119078     1.53158781588558     3.75160864518343