CRYSTAL
# Primitive lattice vectors in Angstrom
PRIMVEC
 4.11209386812454 0.00000000000000 2.37411850169472
 1.37069795604151 3.87691927870198 2.37411850169472
 0.00000000000000 0.00000000000000 4.74823700338943
# Cartesian coordinates in Angstrom.
PRIMCOORD
 3 1
Ac     1.37069795604151     0.96922981967549     2.37411850169472
Ac     4.11209386812454     2.90768945902649     7.12235550508415
O     0.00000000000000     0.00000000000000     0.00000000000000