CRYSTAL
# Primitive lattice vectors in Angstrom
PRIMVEC
 5.80871600156527 0.00000000000000 0.00000000000000
 -0.00000000000000 5.80871600156527 0.00000000000000
 0.00000000000000 0.00000000000000 5.80871600156527
# Cartesian coordinates in Angstrom.
PRIMCOORD
 10 1
Ac     1.45217900039132     1.45217900039132     1.45217900039132
Ac     4.35653700117396     4.35653700117396     1.45217900039132
Ac     4.35653700117396     1.45217900039132     4.35653700117396
Ac     1.45217900039132     4.35653700117396     4.35653700117396
O     2.90435800078264     0.00000000000000     0.00000000000000
O     0.00000000000000     2.90435800078264     0.00000000000000
O     0.00000000000000     0.00000000000000     2.90435800078264
O     2.90435800078264     2.90435800078264     0.00000000000000
O     2.90435800078264     0.00000000000000     2.90435800078264
O     0.00000000000000     2.90435800078264     2.90435800078264