CRYSTAL
# Primitive lattice vectors in Angstrom
PRIMVEC
 3.59740981741544 0.00000000000000 2.07696552647020
 1.19913660580514 3.39167050213535 2.07696552647020
 0.00000000000000 0.00000000000000 4.15393105294040
# Cartesian coordinates in Angstrom.
PRIMCOORD
 3 1
Ac     0.00000000000000     0.00000000000000     0.00000000000000
O     1.19913660580514     0.84791762553384     2.07696552647020
O     3.59740981741544     2.54375287660152     6.23089657941062