CRYSTAL
# Primitive lattice vectors in Angstrom
PRIMVEC
 5.82555293694816 0.00000000000000 0.00000000000000
 -0.00000000000000 5.82555293694816 0.00000000000000
 0.00000000000000 0.00000000000000 5.82555293694816
# Cartesian coordinates in Angstrom.
PRIMCOORD
 14 1
Ac     0.00000000000000     0.00000000000000     0.00000000000000
Ac     2.91277646847408     2.91277646847408     0.00000000000000
Ac     2.91277646847408     0.00000000000000     2.91277646847408
Ac     0.00000000000000     2.91277646847408     2.91277646847408
O     2.91277646847408     0.00000000000000     0.00000000000000
O     0.00000000000000     2.91277646847408     0.00000000000000
O     0.00000000000000     0.00000000000000     2.91277646847408
O     2.91277646847408     2.91277646847408     2.91277646847408
O     4.36916470271112     4.36916470271112     1.45638823423704
O     4.36916470271112     1.45638823423704     4.36916470271112
O     1.45638823423704     4.36916470271112     4.36916470271112
O     4.36916470271112     1.45638823423704     1.45638823423704
O     1.45638823423704     4.36916470271112     1.45638823423704
O     1.45638823423704     1.45638823423704     4.36916470271112