CRYSTAL
# Primitive lattice vectors in Angstrom
PRIMVEC
 4.40050734482043 0.00000000000000 0.00000000000000
 -0.00000000000000 4.40050734482043 0.00000000000000
 0.00000000000000 0.00000000000000 4.40050734482043
# Cartesian coordinates in Angstrom.
PRIMCOORD
 4 1
Ac     0.00000000000000     0.00000000000000     0.00000000000000
O     2.20025367241021     0.00000000000000     0.00000000000000
O     0.00000000000000     2.20025367241021     0.00000000000000
O     0.00000000000000     0.00000000000000     2.20025367241021