CRYSTAL
# Primitive lattice vectors in Angstrom
PRIMVEC
 2.80811183976376 0.00000000000000 1.62126412660218
 0.93603727992125 2.64751323230291 1.62126412660218
 0.00000000000000 0.00000000000000 3.24252825320436
# Cartesian coordinates in Angstrom.
PRIMCOORD
 2 1
Ag     0.00000000000000     0.00000000000000     0.00000000000000
O     1.87207455984251     1.32375661615145     3.24252825320436