CRYSTAL
# Primitive lattice vectors in Angstrom
PRIMVEC
 3.10653999721071 0.00000000000000 1.79356170363794
 1.03551333240357 2.92887399740658 1.79356170363794
 0.00000000000000 0.00000000000000 3.58712340727589
# Cartesian coordinates in Angstrom.
PRIMCOORD
 3 1
Ag     0.00000000000000     0.00000000000000     0.00000000000000
O     1.03551333240357     0.73221849935165     1.79356170363794
O     3.10653999721071     2.19665549805494     5.38068511091384