CRYSTAL
# Primitive lattice vectors in Angstrom
PRIMVEC
 3.95733893626244 0.00000000000000 0.00000000000000
 -0.00000000000000 3.95733893626244 0.00000000000000
 0.00000000000000 0.00000000000000 3.95733893626244
# Cartesian coordinates in Angstrom.
PRIMCOORD
 4 1
Ag     0.00000000000000     0.00000000000000     0.00000000000000
O     1.97866946813121     0.00000000000000     0.00000000000000
O     0.00000000000000     1.97866946813121     0.00000000000000
O     0.00000000000000     0.00000000000000     1.97866946813121