CRYSTAL
# Primitive lattice vectors in Angstrom
PRIMVEC
 4.99557069534604 0.00000000000000 0.00000000000000
 -0.00000000000000 4.99557069534604 0.00000000000000
 0.00000000000000 0.00000000000000 4.99557069534604
# Cartesian coordinates in Angstrom.
PRIMCOORD
 10 1
Ag     1.24889267383651     1.24889267383651     1.24889267383651
Ag     3.74667802150953     3.74667802150953     1.24889267383651
Ag     3.74667802150953     1.24889267383651     3.74667802150953
Ag     1.24889267383651     3.74667802150953     3.74667802150953
O     2.49778534767302     0.00000000000000     0.00000000000000
O     0.00000000000000     2.49778534767302     0.00000000000000
O     0.00000000000000     0.00000000000000     2.49778534767302
O     2.49778534767302     2.49778534767302     0.00000000000000
O     2.49778534767302     0.00000000000000     2.49778534767302
O     0.00000000000000     2.49778534767302     2.49778534767302