CRYSTAL
# Primitive lattice vectors in Angstrom
PRIMVEC
 3.46275906609566 0.00000000000000 1.99922487894915
 1.15425302203188 3.26472055633525 1.99922487894915
 0.00000000000000 0.00000000000000 3.99844975789829
# Cartesian coordinates in Angstrom.
PRIMCOORD
 3 1
Ag     1.15425302203188     0.81618013908381     1.99922487894915
Ag     3.46275906609566     2.44854041725144     5.99767463684744
O     0.00000000000000     0.00000000000000     0.00000000000000