CRYSTAL
# Primitive lattice vectors in Angstrom
PRIMVEC
 5.20591387340976 0.00000000000000 0.00000000000000
 -0.00000000000000 5.20591387340976 0.00000000000000
 0.00000000000000 0.00000000000000 5.20591387340976
# Cartesian coordinates in Angstrom.
PRIMCOORD
 14 1
Ag     0.00000000000000     0.00000000000000     0.00000000000000
Ag     2.60295693670488     2.60295693670488     0.00000000000000
Ag     2.60295693670488     0.00000000000000     2.60295693670488
Ag     0.00000000000000     2.60295693670488     2.60295693670488
O     2.60295693670488     0.00000000000000     0.00000000000000
O     0.00000000000000     2.60295693670488     0.00000000000000
O     0.00000000000000     0.00000000000000     2.60295693670488
O     2.60295693670488     2.60295693670488     2.60295693670488
O     3.90443540505732     3.90443540505732     1.30147846835244
O     3.90443540505732     1.30147846835244     3.90443540505732
O     1.30147846835244     3.90443540505732     3.90443540505732
O     3.90443540505732     1.30147846835244     1.30147846835244
O     1.30147846835244     3.90443540505732     1.30147846835244
O     1.30147846835244     1.30147846835244     3.90443540505732