CRYSTAL
# Primitive lattice vectors in Angstrom
PRIMVEC
 2.71688780660040 0.00000000000000 1.56859590649875
 0.90562926886680 2.56150638902692 1.56859590649875
 0.00000000000000 0.00000000000000 3.13719181299750
# Cartesian coordinates in Angstrom.
PRIMCOORD
 2 1
Al     0.00000000000000     0.00000000000000     0.00000000000000
O     1.81125853773360     1.28075319451346     3.13719181299750