CRYSTAL
# Primitive lattice vectors in Angstrom
PRIMVEC
 3.63934115524606 0.00000000000000 0.00000000000000
 -0.00000000000000 3.63934115524606 0.00000000000000
 0.00000000000000 0.00000000000000 3.63934115524606
# Cartesian coordinates in Angstrom.
PRIMCOORD
 4 1
Al     0.00000000000000     0.00000000000000     0.00000000000000
O     1.81967057762303     0.00000000000000     0.00000000000000
O     0.00000000000000     1.81967057762303     0.00000000000000
O     0.00000000000000     0.00000000000000     1.81967057762303