CRYSTAL
# Primitive lattice vectors in Angstrom
PRIMVEC
 2.86551381870232 0.00000000000000 1.65440517459438
 0.95517127290077 2.70163233705090 1.65440517459438
 0.00000000000000 0.00000000000000 3.30881034918875
# Cartesian coordinates in Angstrom.
PRIMCOORD
 3 1
Al     0.00000000000000     0.00000000000000     0.00000000000000
O     0.95517127290077     0.67540808426272     1.65440517459438
O     2.86551381870232     2.02622425278817     4.96321552378314