CRYSTAL
# Primitive lattice vectors in Angstrom
PRIMVEC
 4.58164688902601 0.00000000000000 0.00000000000000
 -0.00000000000000 4.58164688902601 0.00000000000000
 0.00000000000000 0.00000000000000 4.58164688902601
# Cartesian coordinates in Angstrom.
PRIMCOORD
 10 1
Al     1.14541172225650     1.14541172225650     1.14541172225650
Al     3.43623516676951     3.43623516676951     1.14541172225650
Al     3.43623516676951     1.14541172225650     3.43623516676951
Al     1.14541172225650     3.43623516676951     3.43623516676951
O     2.29082344451301     0.00000000000000     0.00000000000000
O     0.00000000000000     2.29082344451301     0.00000000000000
O     0.00000000000000     0.00000000000000     2.29082344451301
O     2.29082344451301     2.29082344451301     0.00000000000000
O     2.29082344451301     0.00000000000000     2.29082344451301
O     0.00000000000000     2.29082344451301     2.29082344451301