CRYSTAL
# Primitive lattice vectors in Angstrom
PRIMVEC
 3.44241441877593 0.00000000000000 1.98747889134253
 1.14747147292531 3.24553943889441 1.98747889134253
 0.00000000000000 0.00000000000000 3.97495778268507
# Cartesian coordinates in Angstrom.
PRIMCOORD
 3 1
Al     1.14747147292531     0.81138485972360     1.98747889134253
Al     3.44241441877593     2.43415457917081     5.96243667402760
O     0.00000000000000     0.00000000000000     0.00000000000000