CRYSTAL
# Primitive lattice vectors in Angstrom
PRIMVEC
 4.95737582069209 0.00000000000000 0.00000000000000
 -0.00000000000000 4.95737582069209 0.00000000000000
 0.00000000000000 0.00000000000000 4.95737582069209
# Cartesian coordinates in Angstrom.
PRIMCOORD
 14 1
Al     0.00000000000000     0.00000000000000     0.00000000000000
Al     2.47868791034605     2.47868791034605     0.00000000000000
Al     2.47868791034605     0.00000000000000     2.47868791034605
Al     0.00000000000000     2.47868791034605     2.47868791034605
O     2.47868791034605     0.00000000000000     0.00000000000000
O     0.00000000000000     2.47868791034605     0.00000000000000
O     0.00000000000000     0.00000000000000     2.47868791034605
O     2.47868791034605     2.47868791034605     2.47868791034605
O     3.71803186551907     3.71803186551907     1.23934395517302
O     3.71803186551907     1.23934395517302     3.71803186551907
O     1.23934395517302     3.71803186551907     3.71803186551907
O     3.71803186551907     1.23934395517302     1.23934395517302
O     1.23934395517302     3.71803186551907     1.23934395517302
O     1.23934395517302     1.23934395517302     3.71803186551907