CRYSTAL
# Primitive lattice vectors in Angstrom
PRIMVEC
 4.03275204868305 0.00000000000000 0.00000000000000
 -0.00000000000000 4.03275204868305 0.00000000000000
 0.00000000000000 0.00000000000000 4.03275204868305
# Cartesian coordinates in Angstrom.
PRIMCOORD
 4 1
Am     0.00000000000000     0.00000000000000     0.00000000000000
O     2.01637602434152     0.00000000000000     0.00000000000000
O     0.00000000000000     2.01637602434152     0.00000000000000
O     0.00000000000000     0.00000000000000     2.01637602434152