CRYSTAL
# Primitive lattice vectors in Angstrom
PRIMVEC
 2.85782637776746 0.00000000000000 1.64996682850125
 0.95260879258915 2.69438454823088 1.64996682850125
 0.00000000000000 0.00000000000000 3.29993365700250
# Cartesian coordinates in Angstrom.
PRIMCOORD
 2 1
Am     0.00000000000000     0.00000000000000     0.00000000000000
O     1.90521758517831     1.34719227411543     3.29993365700250