CRYSTAL
# Primitive lattice vectors in Angstrom
PRIMVEC
 5.21054370212659 0.00000000000000 0.00000000000000
 -0.00000000000000 5.21054370212659 0.00000000000000
 0.00000000000000 0.00000000000000 5.21054370212659
# Cartesian coordinates in Angstrom.
PRIMCOORD
 14 1
Am     0.00000000000000     0.00000000000000     0.00000000000000
Am     2.60527185106329     2.60527185106329     0.00000000000000
Am     2.60527185106329     0.00000000000000     2.60527185106329
Am     0.00000000000000     2.60527185106329     2.60527185106329
O     2.60527185106329     0.00000000000000     0.00000000000000
O     0.00000000000000     2.60527185106329     0.00000000000000
O     0.00000000000000     0.00000000000000     2.60527185106329
O     2.60527185106329     2.60527185106329     2.60527185106329
O     3.90790777659494     3.90790777659494     1.30263592553165
O     3.90790777659494     1.30263592553165     3.90790777659494
O     1.30263592553165     3.90790777659494     3.90790777659494
O     3.90790777659494     1.30263592553165     1.30263592553165
O     1.30263592553165     3.90790777659494     1.30263592553165
O     1.30263592553165     1.30263592553165     3.90790777659494