CRYSTAL
# Primitive lattice vectors in Angstrom
PRIMVEC
 5.16439332437632 0.00000000000000 0.00000000000000
 -0.00000000000000 5.16439332437632 0.00000000000000
 0.00000000000000 0.00000000000000 5.16439332437632
# Cartesian coordinates in Angstrom.
PRIMCOORD
 10 1
Am     1.29109833109408     1.29109833109408     1.29109833109408
Am     3.87329499328224     3.87329499328224     1.29109833109408
Am     3.87329499328224     1.29109833109408     3.87329499328224
Am     1.29109833109408     3.87329499328224     3.87329499328224
O     2.58219666218816     0.00000000000000     0.00000000000000
O     0.00000000000000     2.58219666218816     0.00000000000000
O     0.00000000000000     0.00000000000000     2.58219666218816
O     2.58219666218816     2.58219666218816     0.00000000000000
O     2.58219666218816     0.00000000000000     2.58219666218816
O     0.00000000000000     2.58219666218816     2.58219666218816