CRYSTAL
# Primitive lattice vectors in Angstrom
PRIMVEC
 3.40057924123049 0.00000000000000 1.96332534032508
 1.13352641374349 3.20609685524838 1.96332534032508
 0.00000000000000 0.00000000000000 3.92665068065016
# Cartesian coordinates in Angstrom.
PRIMCOORD
 3 1
Am     1.13352641374349     0.80152421381209     1.96332534032508
Am     3.40057924123049     2.40457264143629     5.88997602097523
O     0.00000000000000     0.00000000000000     0.00000000000000