CRYSTAL
# Primitive lattice vectors in Angstrom
PRIMVEC
 3.19022055171829 0.00000000000000 1.84187469430883
 1.06340685057276 3.00776878080093 1.84187469430883
 0.00000000000000 0.00000000000000 3.68374938861766
# Cartesian coordinates in Angstrom.
PRIMCOORD
 3 1
Am     0.00000000000000     0.00000000000000     0.00000000000000
O     1.06340685057276     0.75194219520023     1.84187469430883
O     3.19022055171829     2.25582658560069     5.52562408292650