CRYSTAL
# Primitive lattice vectors in Angstrom
PRIMVEC
 4.34000407625304 0.00000000000000 2.50570252170877
 1.44666802541768 4.09179508359437 2.50570252170877
 0.00000000000000 0.00000000000000 5.01140504341753
# Cartesian coordinates in Angstrom.
PRIMCOORD
 3 1
Ar     1.44666802541768     1.02294877089859     2.50570252170877
Ar     4.34000407625304     3.06884631269578     7.51710756512630
O     0.00000000000000     0.00000000000000     0.00000000000000