CRYSTAL
# Primitive lattice vectors in Angstrom
PRIMVEC
 3.43669270561459 0.00000000000000 1.98417545870861
 1.14556423520486 3.24014495599256 1.98417545870861
 0.00000000000000 0.00000000000000 3.96835091741721
# Cartesian coordinates in Angstrom.
PRIMCOORD
 3 1
Ar     0.00000000000000     0.00000000000000     0.00000000000000
O     1.14556423520486     0.81003623899814     1.98417545870861
O     3.43669270561459     2.43010871699442     5.95252637612583