CRYSTAL
# Primitive lattice vectors in Angstrom
PRIMVEC
 5.63933481584357 0.00000000000000 0.00000000000000
 -0.00000000000000 5.63933481584357 0.00000000000000
 0.00000000000000 0.00000000000000 5.63933481584357
# Cartesian coordinates in Angstrom.
PRIMCOORD
 10 1
Ar     1.40983370396089     1.40983370396089     1.40983370396089
Ar     4.22950111188268     4.22950111188268     1.40983370396089
Ar     4.22950111188268     1.40983370396089     4.22950111188268
Ar     1.40983370396089     4.22950111188268     4.22950111188268
O     2.81966740792179     0.00000000000000     0.00000000000000
O     0.00000000000000     2.81966740792179     0.00000000000000
O     0.00000000000000     0.00000000000000     2.81966740792179
O     2.81966740792179     2.81966740792179     0.00000000000000
O     2.81966740792179     0.00000000000000     2.81966740792179
O     0.00000000000000     2.81966740792179     2.81966740792179