CRYSTAL
# Primitive lattice vectors in Angstrom
PRIMVEC
 3.13094424708858 0.00000000000000 1.80765150387430
 1.04364808236286 2.95188254484446 1.80765150387430
 0.00000000000000 0.00000000000000 3.61530300774860
# Cartesian coordinates in Angstrom.
PRIMCOORD
 2 1
Ar     0.00000000000000     0.00000000000000     0.00000000000000
O     2.08729616472572     1.47594127242223     3.61530300774860