CRYSTAL
# Primitive lattice vectors in Angstrom
PRIMVEC
 5.51413851322147 0.00000000000000 0.00000000000000
 -0.00000000000000 5.51413851322147 0.00000000000000
 0.00000000000000 0.00000000000000 5.51413851322147
# Cartesian coordinates in Angstrom.
PRIMCOORD
 14 1
Ar     0.00000000000000     0.00000000000000     0.00000000000000
Ar     2.75706925661073     2.75706925661073     0.00000000000000
Ar     2.75706925661073     0.00000000000000     2.75706925661073
Ar     0.00000000000000     2.75706925661073     2.75706925661073
O     2.75706925661073     0.00000000000000     0.00000000000000
O     0.00000000000000     2.75706925661073     0.00000000000000
O     0.00000000000000     0.00000000000000     2.75706925661073
O     2.75706925661073     2.75706925661073     2.75706925661073
O     4.13560388491610     4.13560388491610     1.37853462830537
O     4.13560388491610     1.37853462830537     4.13560388491610
O     1.37853462830537     4.13560388491610     4.13560388491610
O     4.13560388491610     1.37853462830537     1.37853462830537
O     1.37853462830537     4.13560388491610     1.37853462830537
O     1.37853462830537     1.37853462830537     4.13560388491610