CRYSTAL
# Primitive lattice vectors in Angstrom
PRIMVEC
 3.94225087373432 0.00000000000000 0.00000000000000
 -0.00000000000000 3.94225087373432 0.00000000000000
 0.00000000000000 0.00000000000000 3.94225087373432
# Cartesian coordinates in Angstrom.
PRIMCOORD
 4 1
Ar     0.00000000000000     0.00000000000000     0.00000000000000
O     1.97112543686715     0.00000000000000     0.00000000000000
O     0.00000000000000     1.97112543686715     0.00000000000000
O     0.00000000000000     0.00000000000000     1.97112543686715