CRYSTAL
# Primitive lattice vectors in Angstrom
PRIMVEC
 3.02908000023546 0.00000000000000 1.74884015353285
 1.00969333341182 2.85584401189739 1.74884015353285
 0.00000000000000 0.00000000000000 3.49768030706570
# Cartesian coordinates in Angstrom.
PRIMCOORD
 3 1
As     0.00000000000000     0.00000000000000     0.00000000000000
O     1.00969333341182     0.71396100297435     1.74884015353285
O     3.02908000023545     2.14188300892304     5.24652046059856