CRYSTAL
# Primitive lattice vectors in Angstrom
PRIMVEC
 2.88498944598522 0.00000000000000 1.66564943324879
 0.96166314866174 2.71999413454369 1.66564943324879
 0.00000000000000 0.00000000000000 3.33129886649759
# Cartesian coordinates in Angstrom.
PRIMCOORD
 2 1
As     0.00000000000000     0.00000000000000     0.00000000000000
O     1.92332629732348     1.35999706727184     3.33129886649759