CRYSTAL
# Primitive lattice vectors in Angstrom
PRIMVEC
 5.00444485880990 0.00000000000000 0.00000000000000
 -0.00000000000000 5.00444485880990 0.00000000000000
 0.00000000000000 0.00000000000000 5.00444485880990
# Cartesian coordinates in Angstrom.
PRIMCOORD
 10 1
As     1.25111121470247     1.25111121470247     1.25111121470247
As     3.75333364410743     3.75333364410743     1.25111121470247
As     3.75333364410743     1.25111121470247     3.75333364410743
As     1.25111121470247     3.75333364410743     3.75333364410743
O     2.50222242940495     0.00000000000000     0.00000000000000
O     0.00000000000000     2.50222242940495     0.00000000000000
O     0.00000000000000     0.00000000000000     2.50222242940495
O     2.50222242940495     2.50222242940495     0.00000000000000
O     2.50222242940495     0.00000000000000     2.50222242940495
O     0.00000000000000     2.50222242940495     2.50222242940495