CRYSTAL
# Primitive lattice vectors in Angstrom
PRIMVEC
 5.15206210299492 0.00000000000000 0.00000000000000
 -0.00000000000000 5.15206210299492 0.00000000000000
 0.00000000000000 0.00000000000000 5.15206210299492
# Cartesian coordinates in Angstrom.
PRIMCOORD
 14 1
As     0.00000000000000     0.00000000000000     0.00000000000000
As     2.57603105149746     2.57603105149746     0.00000000000000
As     2.57603105149746     0.00000000000000     2.57603105149746
As     0.00000000000000     2.57603105149746     2.57603105149746
O     2.57603105149746     0.00000000000000     0.00000000000000
O     0.00000000000000     2.57603105149746     0.00000000000000
O     0.00000000000000     0.00000000000000     2.57603105149746
O     2.57603105149746     2.57603105149746     2.57603105149746
O     3.86404657724619     3.86404657724619     1.28801552574873
O     3.86404657724619     1.28801552574873     3.86404657724619
O     1.28801552574873     3.86404657724619     3.86404657724619
O     3.86404657724619     1.28801552574873     1.28801552574873
O     1.28801552574873     3.86404657724619     1.28801552574873
O     1.28801552574873     1.28801552574873     3.86404657724619