CRYSTAL
# Primitive lattice vectors in Angstrom
PRIMVEC
 3.47085083910354 0.00000000000000 2.00389666627347
 1.15695027970118 3.27234955308951 2.00389666627347
 0.00000000000000 0.00000000000000 4.00779333254694
# Cartesian coordinates in Angstrom.
PRIMCOORD
 3 1
As     1.15695027970118     0.81808738827238     2.00389666627347
As     3.47085083910354     2.45426216481714     6.01168999882041
O     0.00000000000000     0.00000000000000     0.00000000000000