CRYSTAL
# Primitive lattice vectors in Angstrom
PRIMVEC
 3.57817997924846 0.00000000000000 0.00000000000000
 -0.00000000000000 3.57817997924846 0.00000000000000
 0.00000000000000 0.00000000000000 3.57817997924846
# Cartesian coordinates in Angstrom.
PRIMCOORD
 4 1
As     0.00000000000000     0.00000000000000     0.00000000000000
O     1.78908998962422     0.00000000000000     0.00000000000000
O     0.00000000000000     1.78908998962422     0.00000000000000
O     0.00000000000000     0.00000000000000     1.78908998962422