CRYSTAL
# Primitive lattice vectors in Angstrom
PRIMVEC
 5.53612770810663 0.00000000000000 0.00000000000000
 -0.00000000000000 5.53612770810663 0.00000000000000
 0.00000000000000 0.00000000000000 5.53612770810663
# Cartesian coordinates in Angstrom.
PRIMCOORD
 10 1
At     1.38403192702665     1.38403192702665     1.38403192702665
At     4.15209578107997     4.15209578107997     1.38403192702665
At     4.15209578107997     1.38403192702665     4.15209578107997
At     1.38403192702665     4.15209578107997     4.15209578107997
O     2.76806385405332     0.00000000000000     0.00000000000000
O     0.00000000000000     2.76806385405332     0.00000000000000
O     0.00000000000000     0.00000000000000     2.76806385405332
O     2.76806385405332     2.76806385405332     0.00000000000000
O     2.76806385405332     0.00000000000000     2.76806385405332
O     0.00000000000000     2.76806385405332     2.76806385405332