CRYSTAL
# Primitive lattice vectors in Angstrom
PRIMVEC
 3.38094693619179 0.00000000000000 1.95199062372617
 1.12698231206393 3.18758734055079 1.95199062372617
 0.00000000000000 0.00000000000000 3.90398124745233
# Cartesian coordinates in Angstrom.
PRIMCOORD
 3 1
At     0.00000000000000     0.00000000000000     0.00000000000000
O     1.12698231206393     0.79689683513770     1.95199062372617
O     3.38094693619178     2.39069050541309     5.85597187117851