CRYSTAL
# Primitive lattice vectors in Angstrom
PRIMVEC
 5.44766551185183 0.00000000000000 0.00000000000000
 -0.00000000000000 5.44766551185183 0.00000000000000
 0.00000000000000 0.00000000000000 5.44766551185183
# Cartesian coordinates in Angstrom.
PRIMCOORD
 14 1
At     0.00000000000000     0.00000000000000     0.00000000000000
At     2.72383275592592     2.72383275592592     0.00000000000000
At     2.72383275592592     0.00000000000000     2.72383275592592
At     0.00000000000000     2.72383275592592     2.72383275592592
O     2.72383275592592     0.00000000000000     0.00000000000000
O     0.00000000000000     2.72383275592592     0.00000000000000
O     0.00000000000000     0.00000000000000     2.72383275592592
O     2.72383275592592     2.72383275592592     2.72383275592592
O     4.08574913388888     4.08574913388888     1.36191637796296
O     4.08574913388888     1.36191637796296     4.08574913388888
O     1.36191637796296     4.08574913388888     4.08574913388888
O     4.08574913388888     1.36191637796296     1.36191637796296
O     1.36191637796296     4.08574913388888     1.36191637796296
O     1.36191637796296     1.36191637796296     4.08574913388888