CRYSTAL
# Primitive lattice vectors in Angstrom
PRIMVEC
 3.28797892507797 0.00000000000000 1.89831551748358
 1.09599297502599 3.09993625909478 1.89831551748358
 0.00000000000000 0.00000000000000 3.79663103496716
# Cartesian coordinates in Angstrom.
PRIMCOORD
 2 1
At     0.00000000000000     0.00000000000000     0.00000000000000
O     2.19198595005198     1.54996812954739     3.79663103496716