CRYSTAL
# Primitive lattice vectors in Angstrom
PRIMVEC
 4.10207287995828 0.00000000000000 0.00000000000000
 -0.00000000000000 4.10207287995828 0.00000000000000
 0.00000000000000 0.00000000000000 4.10207287995828
# Cartesian coordinates in Angstrom.
PRIMCOORD
 4 1
At     0.00000000000000     0.00000000000000     0.00000000000000
O     2.05103643997913     0.00000000000000     0.00000000000000
O     0.00000000000000     2.05103643997913     0.00000000000000
O     0.00000000000000     0.00000000000000     2.05103643997913