CRYSTAL
# Primitive lattice vectors in Angstrom
PRIMVEC
 4.05381368844774 0.00000000000000 2.34047042426989
 1.35127122948258 3.82197219835766 2.34047042426989
 0.00000000000000 0.00000000000000 4.68094084853979
# Cartesian coordinates in Angstrom.
PRIMCOORD
 3 1
At     1.35127122948258     0.95549304958941     2.34047042426989
At     4.05381368844774     2.86647914876825     7.02141127280968
O     0.00000000000000     0.00000000000000     0.00000000000000