CRYSTAL
# Primitive lattice vectors in Angstrom
PRIMVEC
 3.13234537197806 0.00000000000000 1.80846044370641
 1.04411512399268 2.95320353805865 1.80846044370641
 0.00000000000000 0.00000000000000 3.61692088741282
# Cartesian coordinates in Angstrom.
PRIMCOORD
 3 1
Au     0.00000000000000     0.00000000000000     0.00000000000000
O     1.04411512399268     0.73830088451466     1.80846044370641
O     3.13234537197806     2.21490265354399     5.42538133111924