CRYSTAL
# Primitive lattice vectors in Angstrom
PRIMVEC
 2.86140337117188 0.00000000000000 1.65203200660618
 0.95380112372396 2.69775696995424 1.65203200660618
 0.00000000000000 0.00000000000000 3.30406401321237
# Cartesian coordinates in Angstrom.
PRIMCOORD
 2 1
Au     0.00000000000000     0.00000000000000     0.00000000000000
O     1.90760224744792     1.34887848497712     3.30406401321237