CRYSTAL
# Primitive lattice vectors in Angstrom
PRIMVEC
 3.49396142768198 0.00000000000000 2.01723957081036
 1.16465380922732 3.29413842495754 2.01723957081036
 0.00000000000000 0.00000000000000 4.03447914162072
# Cartesian coordinates in Angstrom.
PRIMCOORD
 3 1
Au     1.16465380922732     0.82353460623938     2.01723957081036
Au     3.49396142768198     2.47060381871816     6.05171871243108
O     0.00000000000000     0.00000000000000     0.00000000000000