CRYSTAL
# Primitive lattice vectors in Angstrom
PRIMVEC
 5.21956789169285 0.00000000000000 0.00000000000000
 -0.00000000000000 5.21956789169285 0.00000000000000
 0.00000000000000 0.00000000000000 5.21956789169285
# Cartesian coordinates in Angstrom.
PRIMCOORD
 14 1
Au     0.00000000000000     0.00000000000000     0.00000000000000
Au     2.60978394584642     2.60978394584642     0.00000000000000
Au     2.60978394584642     0.00000000000000     2.60978394584642
Au     0.00000000000000     2.60978394584642     2.60978394584642
O     2.60978394584642     0.00000000000000     0.00000000000000
O     0.00000000000000     2.60978394584642     0.00000000000000
O     0.00000000000000     0.00000000000000     2.60978394584642
O     2.60978394584642     2.60978394584642     2.60978394584642
O     3.91467591876963     3.91467591876963     1.30489197292321
O     3.91467591876963     1.30489197292321     3.91467591876963
O     1.30489197292321     3.91467591876963     3.91467591876963
O     3.91467591876963     1.30489197292321     1.30489197292321
O     1.30489197292321     3.91467591876963     1.30489197292321
O     1.30489197292321     1.30489197292321     3.91467591876963