CRYSTAL
# Primitive lattice vectors in Angstrom
PRIMVEC
 5.04303094522630 0.00000000000000 0.00000000000000
 -0.00000000000000 5.04303094522630 0.00000000000000
 0.00000000000000 0.00000000000000 5.04303094522630
# Cartesian coordinates in Angstrom.
PRIMCOORD
 10 1
Au     1.26075773630657     1.26075773630657     1.26075773630657
Au     3.78227320891973     3.78227320891973     1.26075773630657
Au     3.78227320891973     1.26075773630657     3.78227320891973
Au     1.26075773630657     3.78227320891973     3.78227320891973
O     2.52151547261315     0.00000000000000     0.00000000000000
O     0.00000000000000     2.52151547261315     0.00000000000000
O     0.00000000000000     0.00000000000000     2.52151547261315
O     2.52151547261315     2.52151547261315     0.00000000000000
O     2.52151547261315     0.00000000000000     2.52151547261315
O     0.00000000000000     2.52151547261315     2.52151547261315