CRYSTAL
# Primitive lattice vectors in Angstrom
PRIMVEC
 4.12275870398369 0.00000000000000 0.00000000000000
 -0.00000000000000 4.12275870398369 0.00000000000000
 0.00000000000000 0.00000000000000 4.12275870398369
# Cartesian coordinates in Angstrom.
PRIMCOORD
 10 1
B     1.03068967599592     1.03068967599592     1.03068967599592
B     3.09206902798777     3.09206902798777     1.03068967599592
B     3.09206902798777     1.03068967599592     3.09206902798777
B     1.03068967599592     3.09206902798777     3.09206902798777
O     2.06137935199185     0.00000000000000     0.00000000000000
O     0.00000000000000     2.06137935199185     0.00000000000000
O     0.00000000000000     0.00000000000000     2.06137935199185
O     2.06137935199185     2.06137935199185     0.00000000000000
O     2.06137935199185     0.00000000000000     2.06137935199185
O     0.00000000000000     2.06137935199185     2.06137935199185