CRYSTAL
# Primitive lattice vectors in Angstrom
PRIMVEC
 4.69739205007131 0.00000000000000 0.00000000000000
 -0.00000000000000 4.69739205007131 0.00000000000000
 0.00000000000000 0.00000000000000 4.69739205007131
# Cartesian coordinates in Angstrom.
PRIMCOORD
 14 1
B     0.00000000000000     0.00000000000000     0.00000000000000
B     2.34869602503565     2.34869602503565     0.00000000000000
B     2.34869602503565     0.00000000000000     2.34869602503565
B     0.00000000000000     2.34869602503565     2.34869602503565
O     2.34869602503565     0.00000000000000     0.00000000000000
O     0.00000000000000     2.34869602503565     0.00000000000000
O     0.00000000000000     0.00000000000000     2.34869602503565
O     2.34869602503565     2.34869602503565     2.34869602503565
O     3.52304403755348     3.52304403755348     1.17434801251783
O     3.52304403755348     1.17434801251783     3.52304403755348
O     1.17434801251783     3.52304403755348     3.52304403755348
O     3.52304403755348     1.17434801251783     1.17434801251783
O     1.17434801251783     3.52304403755348     1.17434801251783
O     1.17434801251783     1.17434801251783     3.52304403755348