CRYSTAL
# Primitive lattice vectors in Angstrom
PRIMVEC
 2.95289401091357 0.00000000000000 1.70485415208938
 0.98429800363785 2.78401517232284 1.70485415208938
 0.00000000000000 0.00000000000000 3.40970830417877
# Cartesian coordinates in Angstrom.
PRIMCOORD
 3 1
B     0.98429800363785     0.69600379308071     1.70485415208938
B     2.95289401091357     2.08801137924213     5.11456245626815
O     0.00000000000000     0.00000000000000     0.00000000000000