CRYSTAL
# Primitive lattice vectors in Angstrom
PRIMVEC
 2.63064966139665 0.00000000000000 1.51880629015095
 0.87688322046555 2.48020028599955 1.51880629015095
 0.00000000000000 0.00000000000000 3.03761258030190
# Cartesian coordinates in Angstrom.
PRIMCOORD
 3 1
B     0.00000000000000     0.00000000000000     0.00000000000000
O     0.87688322046555     0.62005007149989     1.51880629015095
O     2.63064966139665     1.86015021449967     4.55641887045286