CRYSTAL
# Primitive lattice vectors in Angstrom
PRIMVEC
 3.19821024617326 0.00000000000000 0.00000000000000
 -0.00000000000000 3.19821024617326 0.00000000000000
 0.00000000000000 0.00000000000000 3.19821024617326
# Cartesian coordinates in Angstrom.
PRIMCOORD
 4 1
B     0.00000000000000     0.00000000000000     0.00000000000000
O     1.59910512308662     0.00000000000000     0.00000000000000
O     0.00000000000000     1.59910512308662     0.00000000000000
O     0.00000000000000     0.00000000000000     1.59910512308662