CRYSTAL
# Primitive lattice vectors in Angstrom
PRIMVEC
 2.35310974192714 0.00000000000000 1.35856854293436
 0.78436991397571 2.21853314052374 1.35856854293436
 0.00000000000000 0.00000000000000 2.71713708586872
# Cartesian coordinates in Angstrom.
PRIMCOORD
 2 1
B     0.00000000000000     0.00000000000000     0.00000000000000
O     1.56873982795143     1.10926657026187     2.71713708586872