CRYSTAL
# Primitive lattice vectors in Angstrom
PRIMVEC
 6.04800463715272 0.00000000000000 0.00000000000000
 -0.00000000000000 6.04800463715272 0.00000000000000
 0.00000000000000 0.00000000000000 6.04800463715272
# Cartesian coordinates in Angstrom.
PRIMCOORD
 10 1
Ba     1.51200115928818     1.51200115928818     1.51200115928818
Ba     4.53600347786454     4.53600347786454     1.51200115928818
Ba     4.53600347786454     1.51200115928818     4.53600347786454
Ba     1.51200115928818     4.53600347786454     4.53600347786454
O     3.02400231857637     0.00000000000000     0.00000000000000
O     0.00000000000000     3.02400231857637     0.00000000000000
O     0.00000000000000     0.00000000000000     3.02400231857637
O     3.02400231857637     3.02400231857637     0.00000000000000
O     3.02400231857637     0.00000000000000     3.02400231857637
O     0.00000000000000     3.02400231857637     3.02400231857637