CRYSTAL
# Primitive lattice vectors in Angstrom
PRIMVEC
 4.33509427106108 0.00000000000000 0.00000000000000
 -0.00000000000000 4.33509427106108 0.00000000000000
 0.00000000000000 0.00000000000000 4.33509427106108
# Cartesian coordinates in Angstrom.
PRIMCOORD
 4 1
Ba     0.00000000000000     0.00000000000000     0.00000000000000
O     2.16754713553054     0.00000000000000     0.00000000000000
O     0.00000000000000     2.16754713553054     0.00000000000000
O     0.00000000000000     0.00000000000000     2.16754713553054