CRYSTAL
# Primitive lattice vectors in Angstrom
PRIMVEC
 4.07456840363151 0.00000000000000 2.35245316466820
 1.35818946787717 3.84153993148838 2.35245316466820
 0.00000000000000 0.00000000000000 4.70490632933639
# Cartesian coordinates in Angstrom.
PRIMCOORD
 3 1
Ba     1.35818946787717     0.96038498287209     2.35245316466820
Ba     4.07456840363151     2.88115494861629     7.05735949400459
O     0.00000000000000     0.00000000000000     0.00000000000000