CRYSTAL
# Primitive lattice vectors in Angstrom
PRIMVEC
 5.95622839667867 0.00000000000000 0.00000000000000
 -0.00000000000000 5.95622839667867 0.00000000000000
 0.00000000000000 0.00000000000000 5.95622839667867
# Cartesian coordinates in Angstrom.
PRIMCOORD
 14 1
Ba     0.00000000000000     0.00000000000000     0.00000000000000
Ba     2.97811419833934     2.97811419833934     0.00000000000000
Ba     2.97811419833934     0.00000000000000     2.97811419833934
Ba     0.00000000000000     2.97811419833934     2.97811419833934
O     2.97811419833934     0.00000000000000     0.00000000000000
O     0.00000000000000     2.97811419833934     0.00000000000000
O     0.00000000000000     0.00000000000000     2.97811419833934
O     2.97811419833934     2.97811419833934     2.97811419833934
O     4.46717129750900     4.46717129750900     1.48905709916967
O     4.46717129750900     1.48905709916967     4.46717129750900
O     1.48905709916967     4.46717129750900     4.46717129750900
O     4.46717129750900     1.48905709916967     1.48905709916967
O     1.48905709916967     4.46717129750900     1.48905709916967
O     1.48905709916967     1.48905709916967     4.46717129750900