CRYSTAL
# Primitive lattice vectors in Angstrom
PRIMVEC
 3.36217453713770 0.00000000000000 1.94115237407895
 1.12072484571257 3.16988855299041 1.94115237407895
 0.00000000000000 0.00000000000000 3.88230474815791
# Cartesian coordinates in Angstrom.
PRIMCOORD
 2 1
Ba     0.00000000000000     0.00000000000000     0.00000000000000
O     2.24144969142513     1.58494427649520     3.88230474815791