CRYSTAL
# Primitive lattice vectors in Angstrom
PRIMVEC
 3.71964341300308 0.00000000000000 2.14753712578674
 1.23988113766769 3.50691344124047 2.14753712578674
 0.00000000000000 0.00000000000000 4.29507425157348
# Cartesian coordinates in Angstrom.
PRIMCOORD
 3 1
Ba     0.00000000000000     0.00000000000000     0.00000000000000
O     1.23988113766769     0.87672836031012     2.14753712578674
O     3.71964341300308     2.63018508093035     6.44261137736024