CRYSTAL
# Primitive lattice vectors in Angstrom
PRIMVEC
 4.22602138407233 0.00000000000000 0.00000000000000
 -0.00000000000000 4.22602138407233 0.00000000000000
 0.00000000000000 0.00000000000000 4.22602138407233
# Cartesian coordinates in Angstrom.
PRIMCOORD
 10 1
Be     1.05650534601808     1.05650534601808     1.05650534601808
Be     3.16951603805425     3.16951603805425     1.05650534601808
Be     3.16951603805425     1.05650534601808     3.16951603805425
Be     1.05650534601808     3.16951603805425     3.16951603805425
O     2.11301069203617     0.00000000000000     0.00000000000000
O     0.00000000000000     2.11301069203617     0.00000000000000
O     0.00000000000000     0.00000000000000     2.11301069203617
O     2.11301069203617     2.11301069203617     0.00000000000000
O     2.11301069203617     0.00000000000000     2.11301069203617
O     0.00000000000000     2.11301069203617     2.11301069203617