CRYSTAL
# Primitive lattice vectors in Angstrom
PRIMVEC
 2.70156825265534 0.00000000000000 1.55975115790470
 0.90052275088511 2.54706297505451 1.55975115790470
 0.00000000000000 0.00000000000000 3.11950231580941
# Cartesian coordinates in Angstrom.
PRIMCOORD
 3 1
Be     0.00000000000000     0.00000000000000     0.00000000000000
O     0.90052275088511     0.63676574376363     1.55975115790470
O     2.70156825265534     1.91029723129088     4.67925347371412