CRYSTAL
# Primitive lattice vectors in Angstrom
PRIMVEC
 4.79523102153735 0.00000000000000 0.00000000000000
 -0.00000000000000 4.79523102153735 0.00000000000000
 0.00000000000000 0.00000000000000 4.79523102153735
# Cartesian coordinates in Angstrom.
PRIMCOORD
 14 1
Be     0.00000000000000     0.00000000000000     0.00000000000000
Be     2.39761551076867     2.39761551076867     0.00000000000000
Be     2.39761551076867     0.00000000000000     2.39761551076867
Be     0.00000000000000     2.39761551076867     2.39761551076867
O     2.39761551076867     0.00000000000000     0.00000000000000
O     0.00000000000000     2.39761551076867     0.00000000000000
O     0.00000000000000     0.00000000000000     2.39761551076867
O     2.39761551076867     2.39761551076867     2.39761551076867
O     3.59642326615301     3.59642326615301     1.19880775538434
O     3.59642326615301     1.19880775538434     3.59642326615301
O     1.19880775538434     3.59642326615301     3.59642326615301
O     3.59642326615301     1.19880775538434     1.19880775538434
O     1.19880775538434     3.59642326615301     1.19880775538434
O     1.19880775538434     1.19880775538434     3.59642326615301