CRYSTAL
# Primitive lattice vectors in Angstrom
PRIMVEC
 2.21402595021283 0.00000000000000 1.27826847834819
 0.73800865007094 2.08740368415797 1.27826847834819
 0.00000000000000 0.00000000000000 2.55653695669638
# Cartesian coordinates in Angstrom.
PRIMCOORD
 2 1
Be     0.00000000000000     0.00000000000000     0.00000000000000
O     1.47601730014189     1.04370184207898     2.55653695669638