CRYSTAL
# Primitive lattice vectors in Angstrom
PRIMVEC
 3.34700913960388 0.00000000000000 0.00000000000000
 -0.00000000000000 3.34700913960388 0.00000000000000
 0.00000000000000 0.00000000000000 3.34700913960388
# Cartesian coordinates in Angstrom.
PRIMCOORD
 4 1
Be     0.00000000000000     0.00000000000000     0.00000000000000
O     1.67350456980194     0.00000000000000     0.00000000000000
O     0.00000000000000     1.67350456980194     0.00000000000000
O     0.00000000000000     0.00000000000000     1.67350456980194