CRYSTAL
# Primitive lattice vectors in Angstrom
PRIMVEC
 2.88767903474784 0.00000000000000 1.66720226804491
 0.96255967824928 2.72252990314723 1.66720226804491
 0.00000000000000 0.00000000000000 3.33440453608982
# Cartesian coordinates in Angstrom.
PRIMCOORD
 3 1
Be     0.96255967824928     0.68063247578681     1.66720226804491
Be     2.88767903474784     2.04189742736043     5.00160680413472
O     0.00000000000000     0.00000000000000     0.00000000000000