CRYSTAL
# Primitive lattice vectors in Angstrom
PRIMVEC
 3.92382952332181 0.00000000000000 2.26542403154405
 1.30794317444060 3.69942195221443 2.26542403154405
 0.00000000000000 0.00000000000000 4.53084806308809
# Cartesian coordinates in Angstrom.
PRIMCOORD
 3 1
Bi     1.30794317444060     0.92485548805361     2.26542403154405
Bi     3.92382952332181     2.77456646416083     6.79627209463214
O     0.00000000000000     0.00000000000000     0.00000000000000