CRYSTAL
# Primitive lattice vectors in Angstrom
PRIMVEC
 3.16593265198329 0.00000000000000 1.82785206885877
 1.05531088399443 2.98486992932972 1.82785206885877
 0.00000000000000 0.00000000000000 3.65570413771755
# Cartesian coordinates in Angstrom.
PRIMCOORD
 2 1
Bi     0.00000000000000     0.00000000000000     0.00000000000000
O     2.11062176798886     1.49243496466486     3.65570413771755