CRYSTAL
# Primitive lattice vectors in Angstrom
PRIMVEC
 3.33544047953838 0.00000000000000 1.92571745872745
 1.11181349317946 3.14468344176760 1.92571745872745
 0.00000000000000 0.00000000000000 3.85143491745491
# Cartesian coordinates in Angstrom.
PRIMCOORD
 3 1
Bi     0.00000000000000     0.00000000000000     0.00000000000000
O     1.11181349317946     0.78617086044190     1.92571745872745
O     3.33544047953838     2.35851258132570     5.77715237618237