CRYSTAL
# Primitive lattice vectors in Angstrom
PRIMVEC
 5.52612551011966 0.00000000000000 0.00000000000000
 -0.00000000000000 5.52612551011966 0.00000000000000
 0.00000000000000 0.00000000000000 5.52612551011966
# Cartesian coordinates in Angstrom.
PRIMCOORD
 14 1
Bi     0.00000000000000     0.00000000000000     0.00000000000000
Bi     2.76306275505983     2.76306275505983     0.00000000000000
Bi     2.76306275505983     0.00000000000000     2.76306275505983
Bi     0.00000000000000     2.76306275505983     2.76306275505983
O     2.76306275505983     0.00000000000000     0.00000000000000
O     0.00000000000000     2.76306275505983     0.00000000000000
O     0.00000000000000     0.00000000000000     2.76306275505983
O     2.76306275505983     2.76306275505983     2.76306275505983
O     4.14459413258974     4.14459413258974     1.38153137752991
O     4.14459413258974     1.38153137752991     4.14459413258974
O     1.38153137752991     4.14459413258974     4.14459413258974
O     4.14459413258974     1.38153137752991     1.38153137752991
O     1.38153137752991     4.14459413258974     1.38153137752991
O     1.38153137752991     1.38153137752991     4.14459413258974