CRYSTAL
# Primitive lattice vectors in Angstrom
PRIMVEC
 5.51798061037899 0.00000000000000 0.00000000000000
 -0.00000000000000 5.51798061037899 0.00000000000000
 0.00000000000000 0.00000000000000 5.51798061037899
# Cartesian coordinates in Angstrom.
PRIMCOORD
 10 1
Bi     1.37949515259474     1.37949515259474     1.37949515259474
Bi     4.13848545778424     4.13848545778424     1.37949515259474
Bi     4.13848545778424     1.37949515259474     4.13848545778424
Bi     1.37949515259474     4.13848545778424     4.13848545778424
O     2.75899030518950     0.00000000000000     0.00000000000000
O     0.00000000000000     2.75899030518950     0.00000000000000
O     0.00000000000000     0.00000000000000     2.75899030518950
O     2.75899030518950     2.75899030518950     0.00000000000000
O     2.75899030518950     0.00000000000000     2.75899030518950
O     0.00000000000000     2.75899030518950     2.75899030518950