CRYSTAL
# Primitive lattice vectors in Angstrom
PRIMVEC
 4.14602050688093 0.00000000000000 0.00000000000000
 -0.00000000000000 4.14602050688093 0.00000000000000
 0.00000000000000 0.00000000000000 4.14602050688093
# Cartesian coordinates in Angstrom.
PRIMCOORD
 4 1
Bi     0.00000000000000     0.00000000000000     0.00000000000000
O     2.07301025344046     0.00000000000000     0.00000000000000
O     0.00000000000000     2.07301025344046     0.00000000000000
O     0.00000000000000     0.00000000000000     2.07301025344046