CRYSTAL
# Primitive lattice vectors in Angstrom
PRIMVEC
 4.01255221436589 0.00000000000000 0.00000000000000
 -0.00000000000000 4.01255221436589 0.00000000000000
 0.00000000000000 0.00000000000000 4.01255221436589
# Cartesian coordinates in Angstrom.
PRIMCOORD
 4 1
Bk     0.00000000000000     0.00000000000000     0.00000000000000
O     2.00627610718294     0.00000000000000     0.00000000000000
O     0.00000000000000     2.00627610718294     0.00000000000000
O     0.00000000000000     0.00000000000000     2.00627610718294