CRYSTAL
# Primitive lattice vectors in Angstrom
PRIMVEC
 5.16384547303120 0.00000000000000 0.00000000000000
 -0.00000000000000 5.16384547303120 0.00000000000000
 0.00000000000000 0.00000000000000 5.16384547303120
# Cartesian coordinates in Angstrom.
PRIMCOORD
 10 1
Bk     1.29096136825780     1.29096136825780     1.29096136825780
Bk     3.87288410477340     3.87288410477340     1.29096136825780
Bk     3.87288410477340     1.29096136825780     3.87288410477340
Bk     1.29096136825780     3.87288410477340     3.87288410477340
O     2.58192273651560     0.00000000000000     0.00000000000000
O     0.00000000000000     2.58192273651560     0.00000000000000
O     0.00000000000000     0.00000000000000     2.58192273651560
O     2.58192273651560     2.58192273651560     0.00000000000000
O     2.58192273651560     0.00000000000000     2.58192273651560
O     0.00000000000000     2.58192273651560     2.58192273651560