CRYSTAL
# Primitive lattice vectors in Angstrom
PRIMVEC
 3.42669981387945 0.00000000000000 1.97840605997534
 1.14223327129315 3.23072356731312 1.97840605997534
 0.00000000000000 0.00000000000000 3.95681211995068
# Cartesian coordinates in Angstrom.
PRIMCOORD
 3 1
Bk     1.14223327129315     0.80768089182828     1.97840605997534
Bk     3.42669981387945     2.42304267548484     5.93521817992602
O     0.00000000000000     0.00000000000000     0.00000000000000