CRYSTAL
# Primitive lattice vectors in Angstrom
PRIMVEC
 3.17409484035064 0.00000000000000 1.83256451050984
 1.05803161345021 2.99256531432156 1.83256451050984
 0.00000000000000 0.00000000000000 3.66512902101968
# Cartesian coordinates in Angstrom.
PRIMCOORD
 3 1
Bk     0.00000000000000     0.00000000000000     0.00000000000000
O     1.05803161345021     0.74814132858039     1.83256451050984
O     3.17409484035063     2.24442398574117     5.49769353152953