CRYSTAL
# Primitive lattice vectors in Angstrom
PRIMVEC
 5.22135640603558 0.00000000000000 0.00000000000000
 -0.00000000000000 5.22135640603558 0.00000000000000
 0.00000000000000 0.00000000000000 5.22135640603558
# Cartesian coordinates in Angstrom.
PRIMCOORD
 14 1
Bk     0.00000000000000     0.00000000000000     0.00000000000000
Bk     2.61067820301779     2.61067820301779     0.00000000000000
Bk     2.61067820301779     0.00000000000000     2.61067820301779
Bk     0.00000000000000     2.61067820301779     2.61067820301779
O     2.61067820301779     0.00000000000000     0.00000000000000
O     0.00000000000000     2.61067820301779     0.00000000000000
O     0.00000000000000     0.00000000000000     2.61067820301779
O     2.61067820301779     2.61067820301779     2.61067820301779
O     3.91601730452669     3.91601730452669     1.30533910150890
O     3.91601730452669     1.30533910150890     3.91601730452669
O     1.30533910150890     3.91601730452669     3.91601730452669
O     3.91601730452669     1.30533910150890     1.30533910150890
O     1.30533910150890     3.91601730452669     1.30533910150890
O     1.30533910150890     1.30533910150890     3.91601730452669