CRYSTAL
# Primitive lattice vectors in Angstrom
PRIMVEC
 2.86833195315358 0.00000000000000 1.65603222527842
 0.95611065105119 2.70428929969193 1.65603222527842
 0.00000000000000 0.00000000000000 3.31206445055684
# Cartesian coordinates in Angstrom.
PRIMCOORD
 2 1
Bk     0.00000000000000     0.00000000000000     0.00000000000000
O     1.91222130210239     1.35214464984596     3.31206445055684