CRYSTAL
# Primitive lattice vectors in Angstrom
PRIMVEC
 5.26956720283273 0.00000000000000 0.00000000000000
 -0.00000000000000 5.26956720283273 0.00000000000000
 0.00000000000000 0.00000000000000 5.26956720283273
# Cartesian coordinates in Angstrom.
PRIMCOORD
 14 1
Br     0.00000000000000     0.00000000000000     0.00000000000000
Br     2.63478360141636     2.63478360141636     0.00000000000000
Br     2.63478360141636     0.00000000000000     2.63478360141636
Br     0.00000000000000     2.63478360141636     2.63478360141636
O     2.63478360141636     0.00000000000000     0.00000000000000
O     0.00000000000000     2.63478360141636     0.00000000000000
O     0.00000000000000     0.00000000000000     2.63478360141636
O     2.63478360141636     2.63478360141636     2.63478360141636
O     3.95217540212454     3.95217540212454     1.31739180070818
O     3.95217540212454     1.31739180070818     3.95217540212454
O     1.31739180070818     3.95217540212454     3.95217540212454
O     3.95217540212454     1.31739180070818     1.31739180070818
O     1.31739180070818     3.95217540212454     1.31739180070818
O     1.31739180070818     1.31739180070818     3.95217540212454