CRYSTAL
# Primitive lattice vectors in Angstrom
PRIMVEC
 3.81592405528787 0.00000000000000 0.00000000000000
 -0.00000000000000 3.81592405528787 0.00000000000000
 0.00000000000000 0.00000000000000 3.81592405528787
# Cartesian coordinates in Angstrom.
PRIMCOORD
 4 1
Br     0.00000000000000     0.00000000000000     0.00000000000000
O     1.90796202764393     0.00000000000000     0.00000000000000
O     0.00000000000000     1.90796202764393     0.00000000000000
O     0.00000000000000     0.00000000000000     1.90796202764393