CRYSTAL
# Primitive lattice vectors in Angstrom
PRIMVEC
 3.72524064238047 0.00000000000000 2.15076868767450
 1.24174688079349 3.51219055970528 2.15076868767450
 0.00000000000000 0.00000000000000 4.30153737534900
# Cartesian coordinates in Angstrom.
PRIMCOORD
 3 1
Br     1.24174688079349     0.87804763992632     2.15076868767450
Br     3.72524064238047     2.63414291977896     6.45230606302350
O     0.00000000000000     0.00000000000000     0.00000000000000