CRYSTAL
# Primitive lattice vectors in Angstrom
PRIMVEC
 5.18949846157220 0.00000000000000 0.00000000000000
 -0.00000000000000 5.18949846157220 0.00000000000000
 0.00000000000000 0.00000000000000 5.18949846157220
# Cartesian coordinates in Angstrom.
PRIMCOORD
 10 1
Br     1.29737461539305     1.29737461539305     1.29737461539305
Br     3.89212384617915     3.89212384617915     1.29737461539305
Br     3.89212384617915     1.29737461539305     3.89212384617915
Br     1.29737461539305     3.89212384617915     3.89212384617915
O     2.59474923078611     0.00000000000000     0.00000000000000
O     0.00000000000000     2.59474923078611     0.00000000000000
O     0.00000000000000     0.00000000000000     2.59474923078611
O     2.59474923078611     2.59474923078611     0.00000000000000
O     2.59474923078611     0.00000000000000     2.59474923078611
O     0.00000000000000     2.59474923078611     2.59474923078611