CRYSTAL
# Primitive lattice vectors in Angstrom
PRIMVEC
 3.18180775439404 0.00000000000000 1.83701756350904
 1.06060258479801 2.99983711941863 1.83701756350904
 0.00000000000000 0.00000000000000 3.67403512701808
# Cartesian coordinates in Angstrom.
PRIMCOORD
 3 1
Br     0.00000000000000     0.00000000000000     0.00000000000000
O     1.06060258479801     0.74995927985466     1.83701756350904
O     3.18180775439404     2.24987783956397     5.51105269052712