CRYSTAL
# Primitive lattice vectors in Angstrom
PRIMVEC
 2.99835799610078 0.00000000000000 1.73110279617565
 0.99945266536693 2.82687902862369 1.73110279617565
 0.00000000000000 0.00000000000000 3.46220559235130
# Cartesian coordinates in Angstrom.
PRIMCOORD
 2 1
Br     0.00000000000000     0.00000000000000     0.00000000000000
O     1.99890533073385     1.41343951431184     3.46220559235130