CRYSTAL
# Primitive lattice vectors in Angstrom
PRIMVEC
 4.79577901750374 0.00000000000000 0.00000000000000
 -0.00000000000000 4.79577901750374 0.00000000000000
 0.00000000000000 0.00000000000000 4.79577901750374
# Cartesian coordinates in Angstrom.
PRIMCOORD
 14 1
C     0.00000000000000     0.00000000000000     0.00000000000000
C     2.39788950875187     2.39788950875187     0.00000000000000
C     2.39788950875187     0.00000000000000     2.39788950875187
C     0.00000000000000     2.39788950875187     2.39788950875187
O     2.39788950875187     0.00000000000000     0.00000000000000
O     0.00000000000000     2.39788950875187     0.00000000000000
O     0.00000000000000     0.00000000000000     2.39788950875187
O     2.39788950875187     2.39788950875187     2.39788950875187
O     3.59683426312780     3.59683426312780     1.19894475437593
O     3.59683426312780     1.19894475437593     3.59683426312780
O     1.19894475437593     3.59683426312780     3.59683426312780
O     3.59683426312780     1.19894475437593     1.19894475437593
O     1.19894475437593     3.59683426312780     1.19894475437593
O     1.19894475437593     1.19894475437593     3.59683426312780