CRYSTAL
# Primitive lattice vectors in Angstrom
PRIMVEC
 4.31849049462214 0.00000000000000 0.00000000000000
 -0.00000000000000 4.31849049462214 0.00000000000000
 0.00000000000000 0.00000000000000 4.31849049462214
# Cartesian coordinates in Angstrom.
PRIMCOORD
 10 1
C     1.07962262365553     1.07962262365553     1.07962262365553
C     3.23886787096660     3.23886787096660     1.07962262365553
C     3.23886787096660     1.07962262365553     3.23886787096660
C     1.07962262365553     3.23886787096660     3.23886787096660
O     2.15924524731107     0.00000000000000     0.00000000000000
O     0.00000000000000     2.15924524731107     0.00000000000000
O     0.00000000000000     0.00000000000000     2.15924524731107
O     2.15924524731107     2.15924524731107     0.00000000000000
O     2.15924524731107     0.00000000000000     2.15924524731107
O     0.00000000000000     2.15924524731107     2.15924524731107