CRYSTAL
# Primitive lattice vectors in Angstrom
PRIMVEC
 2.91586541783263 0.00000000000000 1.68347568390639
 0.97195513927754 2.74910427996906 1.68347568390639
 0.00000000000000 0.00000000000000 3.36695136781278
# Cartesian coordinates in Angstrom.
PRIMCOORD
 3 1
C     0.97195513927754     0.68727606999226     1.68347568390639
C     2.91586541783263     2.06182820997680     5.05042705171917
O     0.00000000000000     0.00000000000000     0.00000000000000