CRYSTAL
# Primitive lattice vectors in Angstrom
PRIMVEC
 2.70972050613037 0.00000000000000 1.56445786364302
 0.90324016871012 2.55474899334004 1.56445786364302
 0.00000000000000 0.00000000000000 3.12891572728604
# Cartesian coordinates in Angstrom.
PRIMCOORD
 3 1
C     0.00000000000000     0.00000000000000     0.00000000000000
O     0.90324016871012     0.63868724833501     1.56445786364302
O     2.70972050613037     1.91606174500503     4.69337359092906