CRYSTAL
# Primitive lattice vectors in Angstrom
PRIMVEC
 2.39566236806873 0.00000000000000 1.38313631309194
 0.79855412268958 2.25865214119310 1.38313631309194
 0.00000000000000 0.00000000000000 2.76627262618387
# Cartesian coordinates in Angstrom.
PRIMCOORD
 2 1
C     0.00000000000000     0.00000000000000     0.00000000000000
O     1.59710824537916     1.12932607059655     2.76627262618387