CRYSTAL
# Primitive lattice vectors in Angstrom
PRIMVEC
 2.91915366773585 0.00000000000000 1.68537415587317
 0.97305122257862 2.75220447170880 1.68537415587317
 0.00000000000000 0.00000000000000 3.37074831174635
# Cartesian coordinates in Angstrom.
PRIMCOORD
 2 1
Ca     0.00000000000000     0.00000000000000     0.00000000000000
O     1.94610244515723     1.37610223585440     3.37074831174635