CRYSTAL
# Primitive lattice vectors in Angstrom
PRIMVEC
 3.32760745073288 0.00000000000000 1.92119505743803
 1.10920248357762 3.13729839138680 1.92119505743803
 0.00000000000000 0.00000000000000 3.84239011487606
# Cartesian coordinates in Angstrom.
PRIMCOORD
 3 1
Ca     0.00000000000000     0.00000000000000     0.00000000000000
O     1.10920248357762     0.78432459784670     1.92119505743803
O     3.32760745073288     2.35297379354010     5.76358517231410