CRYSTAL
# Primitive lattice vectors in Angstrom
PRIMVEC
 5.34643809443045 0.00000000000000 0.00000000000000
 -0.00000000000000 5.34643809443045 0.00000000000000
 0.00000000000000 0.00000000000000 5.34643809443045
# Cartesian coordinates in Angstrom.
PRIMCOORD
 10 1
Ca     1.33660952360761     1.33660952360761     1.33660952360761
Ca     4.00982857082284     4.00982857082284     1.33660952360761
Ca     4.00982857082284     1.33660952360761     4.00982857082284
Ca     1.33660952360761     4.00982857082284     4.00982857082284
O     2.67321904721523     0.00000000000000     0.00000000000000
O     0.00000000000000     2.67321904721523     0.00000000000000
O     0.00000000000000     0.00000000000000     2.67321904721523
O     2.67321904721523     2.67321904721523     0.00000000000000
O     2.67321904721523     0.00000000000000     2.67321904721523
O     0.00000000000000     2.67321904721523     2.67321904721523