CRYSTAL
# Primitive lattice vectors in Angstrom
PRIMVEC
 4.46496441070821 0.00000000000000 0.00000000000000
 -0.00000000000000 4.46496441070821 0.00000000000000
 0.00000000000000 0.00000000000000 4.46496441070821
# Cartesian coordinates in Angstrom.
PRIMCOORD
 4 1
Ca     0.00000000000000     0.00000000000000     0.00000000000000
O     2.23248220535410     0.00000000000000     0.00000000000000
O     0.00000000000000     2.23248220535410     0.00000000000000
O     0.00000000000000     0.00000000000000     2.23248220535410