CRYSTAL
# Primitive lattice vectors in Angstrom
PRIMVEC
 3.65009193088899 0.00000000000000 2.10738155886564
 1.21669731029633 3.44133967504787 2.10738155886564
 0.00000000000000 0.00000000000000 4.21476311773128
# Cartesian coordinates in Angstrom.
PRIMCOORD
 3 1
Ca     1.21669731029633     0.86033491876197     2.10738155886564
Ca     3.65009193088899     2.58100475628591     6.32214467659692
O     0.00000000000000     0.00000000000000     0.00000000000000