CRYSTAL
# Primitive lattice vectors in Angstrom
PRIMVEC
 5.42228309301044 0.00000000000000 0.00000000000000
 -0.00000000000000 5.42228309301044 0.00000000000000
 0.00000000000000 0.00000000000000 5.42228309301044
# Cartesian coordinates in Angstrom.
PRIMCOORD
 14 1
Ca     0.00000000000000     0.00000000000000     0.00000000000000
Ca     2.71114154650522     2.71114154650522     0.00000000000000
Ca     2.71114154650522     0.00000000000000     2.71114154650522
Ca     0.00000000000000     2.71114154650522     2.71114154650522
O     2.71114154650522     0.00000000000000     0.00000000000000
O     0.00000000000000     2.71114154650522     0.00000000000000
O     0.00000000000000     0.00000000000000     2.71114154650522
O     2.71114154650522     2.71114154650522     2.71114154650522
O     4.06671231975783     4.06671231975783     1.35557077325261
O     4.06671231975783     1.35557077325261     4.06671231975783
O     1.35557077325261     4.06671231975783     4.06671231975783
O     4.06671231975783     1.35557077325261     1.35557077325261
O     1.35557077325261     4.06671231975783     1.35557077325261
O     1.35557077325261     1.35557077325261     4.06671231975783