CRYSTAL
# Primitive lattice vectors in Angstrom
PRIMVEC
 5.17828860831735 0.00000000000000 0.00000000000000
 -0.00000000000000 5.17828860831735 0.00000000000000
 0.00000000000000 0.00000000000000 5.17828860831735
# Cartesian coordinates in Angstrom.
PRIMCOORD
 10 1
Cd     1.29457215207934     1.29457215207934     1.29457215207934
Cd     3.88371645623802     3.88371645623802     1.29457215207934
Cd     3.88371645623802     1.29457215207934     3.88371645623802
Cd     1.29457215207934     3.88371645623802     3.88371645623802
O     2.58914430415868     0.00000000000000     0.00000000000000
O     0.00000000000000     2.58914430415868     0.00000000000000
O     0.00000000000000     0.00000000000000     2.58914430415868
O     2.58914430415868     2.58914430415868     0.00000000000000
O     2.58914430415868     0.00000000000000     2.58914430415868
O     0.00000000000000     2.58914430415868     2.58914430415868