CRYSTAL
# Primitive lattice vectors in Angstrom
PRIMVEC
 3.57816500014281 0.00000000000000 2.06585452603735
 1.19272166671427 3.37352631440712 2.06585452603735
 0.00000000000000 0.00000000000000 4.13170905207470
# Cartesian coordinates in Angstrom.
PRIMCOORD
 3 1
Cd     1.19272166671427     0.84338157860178     2.06585452603735
Cd     3.57816500014281     2.53014473580535     6.19756357811205
O     0.00000000000000     0.00000000000000     0.00000000000000