CRYSTAL
# Primitive lattice vectors in Angstrom
PRIMVEC
 5.33597594567427 0.00000000000000 0.00000000000000
 -0.00000000000000 5.33597594567427 0.00000000000000
 0.00000000000000 0.00000000000000 5.33597594567427
# Cartesian coordinates in Angstrom.
PRIMCOORD
 14 1
Cd     0.00000000000000     0.00000000000000     0.00000000000000
Cd     2.66798797283714     2.66798797283714     0.00000000000000
Cd     2.66798797283714     0.00000000000000     2.66798797283714
Cd     0.00000000000000     2.66798797283714     2.66798797283714
O     2.66798797283714     0.00000000000000     0.00000000000000
O     0.00000000000000     2.66798797283714     0.00000000000000
O     0.00000000000000     0.00000000000000     2.66798797283714
O     2.66798797283714     2.66798797283714     2.66798797283714
O     4.00198195925570     4.00198195925570     1.33399398641857
O     4.00198195925570     1.33399398641857     4.00198195925570
O     1.33399398641857     4.00198195925570     4.00198195925570
O     4.00198195925570     1.33399398641857     1.33399398641857
O     1.33399398641857     4.00198195925570     1.33399398641857
O     1.33399398641857     1.33399398641857     4.00198195925570