CRYSTAL
# Primitive lattice vectors in Angstrom
PRIMVEC
 4.09950875824494 0.00000000000000 0.00000000000000
 -0.00000000000000 4.09950875824494 0.00000000000000
 0.00000000000000 0.00000000000000 4.09950875824494
# Cartesian coordinates in Angstrom.
PRIMCOORD
 4 1
Cd     0.00000000000000     0.00000000000000     0.00000000000000
O     2.04975437912247     0.00000000000000     0.00000000000000
O     0.00000000000000     2.04975437912247     0.00000000000000
O     0.00000000000000     0.00000000000000     2.04975437912247