CRYSTAL
# Primitive lattice vectors in Angstrom
PRIMVEC
 2.87235625164553 0.00000000000000 1.65835565509605
 0.95745208388184 2.70808344469617 1.65835565509605
 0.00000000000000 0.00000000000000 3.31671131019210
# Cartesian coordinates in Angstrom.
PRIMCOORD
 2 1
Cd     0.00000000000000     0.00000000000000     0.00000000000000
O     1.91490416776369     1.35404172234808     3.31671131019210