CRYSTAL
# Primitive lattice vectors in Angstrom
PRIMVEC
 3.22049406456712 0.00000000000000 1.85935311510142
 1.07349802152237 3.03631092243525 1.85935311510142
 0.00000000000000 0.00000000000000 3.71870623020283
# Cartesian coordinates in Angstrom.
PRIMCOORD
 3 1
Cd     0.00000000000000     0.00000000000000     0.00000000000000
O     1.07349802152237     0.75907773060881     1.85935311510142
O     3.22049406456712     2.27723319182644     5.57805934530425