CRYSTAL
# Primitive lattice vectors in Angstrom
PRIMVEC
 3.30589941768606 0.00000000000000 1.90866191871487
 1.10196647256202 3.11683186155530 1.90866191871487
 0.00000000000000 0.00000000000000 3.81732383742975
# Cartesian coordinates in Angstrom.
PRIMCOORD
 3 1
Ce     0.00000000000000     0.00000000000000     0.00000000000000
O     1.10196647256202     0.77920796538883     1.90866191871487
O     3.30589941768606     2.33762389616648     5.72598575614463