CRYSTAL
# Primitive lattice vectors in Angstrom
PRIMVEC
 3.01179961416477 0.00000000000000 1.73886331798324
 1.00393320472159 2.83955190766791 1.73886331798324
 0.00000000000000 0.00000000000000 3.47772663596648
# Cartesian coordinates in Angstrom.
PRIMCOORD
 2 1
Ce     0.00000000000000     0.00000000000000     0.00000000000000
O     2.00786640944318     1.41977595383395     3.47772663596648