CRYSTAL
# Primitive lattice vectors in Angstrom
PRIMVEC
 3.64982417193005 0.00000000000000 2.10722696815862
 1.21660805731001 3.44108722948042 2.10722696815862
 0.00000000000000 0.00000000000000 4.21445393631724
# Cartesian coordinates in Angstrom.
PRIMCOORD
 3 1
Ce     1.21660805731001     0.86027180737010     2.10722696815862
Ce     3.64982417193005     2.58081542211031     6.32168090447585
O     0.00000000000000     0.00000000000000     0.00000000000000