CRYSTAL
# Primitive lattice vectors in Angstrom
PRIMVEC
 5.43844543488827 0.00000000000000 0.00000000000000
 -0.00000000000000 5.43844543488827 0.00000000000000
 0.00000000000000 0.00000000000000 5.43844543488827
# Cartesian coordinates in Angstrom.
PRIMCOORD
 14 1
Ce     0.00000000000000     0.00000000000000     0.00000000000000
Ce     2.71922271744414     2.71922271744414     0.00000000000000
Ce     2.71922271744414     0.00000000000000     2.71922271744414
Ce     0.00000000000000     2.71922271744414     2.71922271744414
O     2.71922271744414     0.00000000000000     0.00000000000000
O     0.00000000000000     2.71922271744414     0.00000000000000
O     0.00000000000000     0.00000000000000     2.71922271744414
O     2.71922271744414     2.71922271744414     2.71922271744414
O     4.07883407616621     4.07883407616621     1.35961135872207
O     4.07883407616621     1.35961135872207     4.07883407616621
O     1.35961135872207     4.07883407616621     4.07883407616621
O     4.07883407616621     1.35961135872207     1.35961135872207
O     1.35961135872207     4.07883407616621     1.35961135872207
O     1.35961135872207     1.35961135872207     4.07883407616621