CRYSTAL
# Primitive lattice vectors in Angstrom
PRIMVEC
 5.40522562887531 0.00000000000000 0.00000000000000
 -0.00000000000000 5.40522562887531 0.00000000000000
 0.00000000000000 0.00000000000000 5.40522562887531
# Cartesian coordinates in Angstrom.
PRIMCOORD
 10 1
Ce     1.35130640721882     1.35130640721882     1.35130640721882
Ce     4.05391922165648     4.05391922165648     1.35130640721882
Ce     4.05391922165648     1.35130640721882     4.05391922165648
Ce     1.35130640721882     4.05391922165648     4.05391922165648
O     2.70261281443766     0.00000000000000     0.00000000000000
O     0.00000000000000     2.70261281443766     0.00000000000000
O     0.00000000000000     0.00000000000000     2.70261281443766
O     2.70261281443766     2.70261281443766     0.00000000000000
O     2.70261281443766     0.00000000000000     2.70261281443766
O     0.00000000000000     2.70261281443766     2.70261281443766