CRYSTAL
# Primitive lattice vectors in Angstrom
PRIMVEC
 4.25180086838596 0.00000000000000 0.00000000000000
 -0.00000000000000 4.25180086838596 0.00000000000000
 0.00000000000000 0.00000000000000 4.25180086838596
# Cartesian coordinates in Angstrom.
PRIMCOORD
 4 1
Ce     0.00000000000000     0.00000000000000     0.00000000000000
O     2.12590043419297     0.00000000000000     0.00000000000000
O     0.00000000000000     2.12590043419297     0.00000000000000
O     0.00000000000000     0.00000000000000     2.12590043419297