CRYSTAL
# Primitive lattice vectors in Angstrom
PRIMVEC
 5.17276149050603 0.00000000000000 0.00000000000000
 -0.00000000000000 5.17276149050603 0.00000000000000
 0.00000000000000 0.00000000000000 5.17276149050603
# Cartesian coordinates in Angstrom.
PRIMCOORD
 10 1
Cf     1.29319037262650     1.29319037262650     1.29319037262650
Cf     3.87957111787952     3.87957111787952     1.29319037262650
Cf     3.87957111787952     1.29319037262650     3.87957111787952
Cf     1.29319037262650     3.87957111787952     3.87957111787952
O     2.58638074525302     0.00000000000000     0.00000000000000
O     0.00000000000000     2.58638074525302     0.00000000000000
O     0.00000000000000     0.00000000000000     2.58638074525302
O     2.58638074525302     2.58638074525302     0.00000000000000
O     2.58638074525302     0.00000000000000     2.58638074525302
O     0.00000000000000     2.58638074525302     2.58638074525302