CRYSTAL
# Primitive lattice vectors in Angstrom
PRIMVEC
 4.01872068831453 0.00000000000000 0.00000000000000
 -0.00000000000000 4.01872068831453 0.00000000000000
 0.00000000000000 0.00000000000000 4.01872068831453
# Cartesian coordinates in Angstrom.
PRIMCOORD
 4 1
Cf     0.00000000000000     0.00000000000000     0.00000000000000
O     2.00936034415726     0.00000000000000     0.00000000000000
O     0.00000000000000     2.00936034415726     0.00000000000000
O     0.00000000000000     0.00000000000000     2.00936034415726