CRYSTAL
# Primitive lattice vectors in Angstrom
PRIMVEC
 5.23397364716731 0.00000000000000 0.00000000000000
 -0.00000000000000 5.23397364716731 0.00000000000000
 0.00000000000000 0.00000000000000 5.23397364716731
# Cartesian coordinates in Angstrom.
PRIMCOORD
 14 1
Cf     0.00000000000000     0.00000000000000     0.00000000000000
Cf     2.61698682358365     2.61698682358365     0.00000000000000
Cf     2.61698682358365     0.00000000000000     2.61698682358365
Cf     0.00000000000000     2.61698682358365     2.61698682358365
O     2.61698682358365     0.00000000000000     0.00000000000000
O     0.00000000000000     2.61698682358365     0.00000000000000
O     0.00000000000000     0.00000000000000     2.61698682358365
O     2.61698682358365     2.61698682358365     2.61698682358365
O     3.92548023537548     3.92548023537548     1.30849341179183
O     3.92548023537548     1.30849341179183     3.92548023537548
O     1.30849341179183     3.92548023537548     3.92548023537548
O     3.92548023537548     1.30849341179183     1.30849341179183
O     1.30849341179183     3.92548023537548     1.30849341179183
O     1.30849341179183     1.30849341179183     3.92548023537548