CRYSTAL
# Primitive lattice vectors in Angstrom
PRIMVEC
 3.46003322845847 0.00000000000000 1.99765111585555
 1.15334440948615 3.26215061196502 1.99765111585555
 0.00000000000000 0.00000000000000 3.99530223171110
# Cartesian coordinates in Angstrom.
PRIMCOORD
 3 1
Cf     1.15334440948615     0.81553765299125     1.99765111585555
Cf     3.46003322845847     2.44661295897377     5.99295334756665
O     0.00000000000000     0.00000000000000     0.00000000000000