CRYSTAL
# Primitive lattice vectors in Angstrom
PRIMVEC
 3.17774043767354 0.00000000000000 1.83466929710557
 1.05924681255784 2.99600241643956 1.83466929710557
 0.00000000000000 0.00000000000000 3.66933859421115
# Cartesian coordinates in Angstrom.
PRIMCOORD
 3 1
Cf     0.00000000000000     0.00000000000000     0.00000000000000
O     1.05924681255784     0.74900060410989     1.83466929710557
O     3.17774043767354     2.24700181232967     5.50400789131673