CRYSTAL
# Primitive lattice vectors in Angstrom
PRIMVEC
 2.88471637075141 0.00000000000000 1.66549177318904
 0.96157212358380 2.71973667674422 1.66549177318904
 0.00000000000000 0.00000000000000 3.33098354637809
# Cartesian coordinates in Angstrom.
PRIMCOORD
 2 1
Cf     0.00000000000000     0.00000000000000     0.00000000000000
O     1.92314424716761     1.35986833837211     3.33098354637809