CRYSTAL
# Primitive lattice vectors in Angstrom
PRIMVEC
 3.66095615173577 0.00000000000000 0.00000000000000
 -0.00000000000000 3.66095615173577 0.00000000000000
 0.00000000000000 0.00000000000000 3.66095615173577
# Cartesian coordinates in Angstrom.
PRIMCOORD
 4 1
Cl     0.00000000000000     0.00000000000000     0.00000000000000
O     1.83047807586788     0.00000000000000     0.00000000000000
O     0.00000000000000     1.83047807586788     0.00000000000000
O     0.00000000000000     0.00000000000000     1.83047807586788