CRYSTAL
# Primitive lattice vectors in Angstrom
PRIMVEC
 2.85495796866415 0.00000000000000 1.64831075173331
 0.95165265622138 2.69168018619332 1.64831075173331
 0.00000000000000 0.00000000000000 3.29662150346662
# Cartesian coordinates in Angstrom.
PRIMCOORD
 2 1
Cl     0.00000000000000     0.00000000000000     0.00000000000000
O     1.90330531244277     1.34584009309666     3.29662150346662