CRYSTAL
# Primitive lattice vectors in Angstrom
PRIMVEC
 3.57569259637226 0.00000000000000 2.06442708305488
 1.19189753212408 3.37119530977781 2.06442708305488
 0.00000000000000 0.00000000000000 4.12885416610976
# Cartesian coordinates in Angstrom.
PRIMCOORD
 3 1
Cl     1.19189753212408     0.84279882744445     2.06442708305488
Cl     3.57569259637226     2.52839648233336     6.19328124916464
O     0.00000000000000     0.00000000000000     0.00000000000000