CRYSTAL
# Primitive lattice vectors in Angstrom
PRIMVEC
 3.10295467484066 0.00000000000000 1.79149171680246
 1.03431822494688 2.92549372305910 1.79149171680246
 0.00000000000000 0.00000000000000 3.58298343360492
# Cartesian coordinates in Angstrom.
PRIMCOORD
 3 1
Cl     0.00000000000000     0.00000000000000     0.00000000000000
O     1.03431822494688     0.73137343076478     1.79149171680246
O     3.10295467484066     2.19412029229433     5.37447515040738