CRYSTAL
# Primitive lattice vectors in Angstrom
PRIMVEC
 5.03133394706810 0.00000000000000 0.00000000000000
 -0.00000000000000 5.03133394706810 0.00000000000000
 0.00000000000000 0.00000000000000 5.03133394706810
# Cartesian coordinates in Angstrom.
PRIMCOORD
 10 1
Cl     1.25783348676702     1.25783348676702     1.25783348676702
Cl     3.77350046030107     3.77350046030107     1.25783348676702
Cl     3.77350046030107     1.25783348676702     3.77350046030107
Cl     1.25783348676702     3.77350046030107     3.77350046030107
O     2.51566697353405     0.00000000000000     0.00000000000000
O     0.00000000000000     2.51566697353405     0.00000000000000
O     0.00000000000000     0.00000000000000     2.51566697353405
O     2.51566697353405     2.51566697353405     0.00000000000000
O     2.51566697353405     0.00000000000000     2.51566697353405
O     0.00000000000000     2.51566697353405     2.51566697353405