CRYSTAL
# Primitive lattice vectors in Angstrom
PRIMVEC
 5.19071977550042 0.00000000000000 0.00000000000000
 -0.00000000000000 5.19071977550042 0.00000000000000
 0.00000000000000 0.00000000000000 5.19071977550042
# Cartesian coordinates in Angstrom.
PRIMCOORD
 14 1
Cl     0.00000000000000     0.00000000000000     0.00000000000000
Cl     2.59535988775021     2.59535988775021     0.00000000000000
Cl     2.59535988775021     0.00000000000000     2.59535988775021
Cl     0.00000000000000     2.59535988775021     2.59535988775021
O     2.59535988775021     0.00000000000000     0.00000000000000
O     0.00000000000000     2.59535988775021     0.00000000000000
O     0.00000000000000     0.00000000000000     2.59535988775021
O     2.59535988775021     2.59535988775021     2.59535988775021
O     3.89303983162532     3.89303983162532     1.29767994387511
O     3.89303983162532     1.29767994387511     3.89303983162532
O     1.29767994387511     3.89303983162532     3.89303983162532
O     3.89303983162532     1.29767994387511     1.29767994387511
O     1.29767994387511     3.89303983162532     1.29767994387511
O     1.29767994387511     1.29767994387511     3.89303983162532