CRYSTAL
# Primitive lattice vectors in Angstrom
PRIMVEC
 2.85812821407675 0.00000000000000 1.65014109377567
 0.95270940469225 2.69466912223236 1.65014109377567
 0.00000000000000 0.00000000000000 3.30028218755135
# Cartesian coordinates in Angstrom.
PRIMCOORD
 2 1
Cm     0.00000000000000     0.00000000000000     0.00000000000000
O     1.90541880938450     1.34733456111617     3.30028218755135