CRYSTAL
# Primitive lattice vectors in Angstrom
PRIMVEC
 4.01821018641244 0.00000000000000 0.00000000000000
 -0.00000000000000 4.01821018641244 0.00000000000000
 0.00000000000000 0.00000000000000 4.01821018641244
# Cartesian coordinates in Angstrom.
PRIMCOORD
 4 1
Cm     0.00000000000000     0.00000000000000     0.00000000000000
O     2.00910509320621     0.00000000000000     0.00000000000000
O     0.00000000000000     2.00910509320621     0.00000000000000
O     0.00000000000000     0.00000000000000     2.00910509320621