CRYSTAL
# Primitive lattice vectors in Angstrom
PRIMVEC
 5.21380197697938 0.00000000000000 0.00000000000000
 -0.00000000000000 5.21380197697938 0.00000000000000
 0.00000000000000 0.00000000000000 5.21380197697938
# Cartesian coordinates in Angstrom.
PRIMCOORD
 14 1
Cm     0.00000000000000     0.00000000000000     0.00000000000000
Cm     2.60690098848969     2.60690098848969     0.00000000000000
Cm     2.60690098848969     0.00000000000000     2.60690098848969
Cm     0.00000000000000     2.60690098848969     2.60690098848969
O     2.60690098848969     0.00000000000000     0.00000000000000
O     0.00000000000000     2.60690098848969     0.00000000000000
O     0.00000000000000     0.00000000000000     2.60690098848969
O     2.60690098848969     2.60690098848969     2.60690098848969
O     3.91035148273454     3.91035148273454     1.30345049424485
O     3.91035148273454     1.30345049424485     3.91035148273454
O     1.30345049424485     3.91035148273454     3.91035148273454
O     3.91035148273454     1.30345049424485     1.30345049424485
O     1.30345049424485     3.91035148273454     1.30345049424485
O     1.30345049424485     1.30345049424485     3.91035148273454