CRYSTAL
# Primitive lattice vectors in Angstrom
PRIMVEC
 3.40484488447933 0.00000000000000 1.96578811060306
 1.13494829482644 3.21011854227155 1.96578811060306
 0.00000000000000 0.00000000000000 3.93157622120613
# Cartesian coordinates in Angstrom.
PRIMCOORD
 3 1
Cm     1.13494829482644     0.80252963556789     1.96578811060306
Cm     3.40484488447933     2.40758890670367     5.89736433180919
O     0.00000000000000     0.00000000000000     0.00000000000000