CRYSTAL
# Primitive lattice vectors in Angstrom
PRIMVEC
 5.16055591292692 0.00000000000000 0.00000000000000
 -0.00000000000000 5.16055591292692 0.00000000000000
 0.00000000000000 0.00000000000000 5.16055591292692
# Cartesian coordinates in Angstrom.
PRIMCOORD
 10 1
Cm     1.29013897823173     1.29013897823173     1.29013897823173
Cm     3.87041693469519     3.87041693469519     1.29013897823173
Cm     3.87041693469519     1.29013897823173     3.87041693469519
Cm     1.29013897823173     3.87041693469519     3.87041693469519
O     2.58027795646346     0.00000000000000     0.00000000000000
O     0.00000000000000     2.58027795646346     0.00000000000000
O     0.00000000000000     0.00000000000000     2.58027795646346
O     2.58027795646346     2.58027795646346     0.00000000000000
O     2.58027795646346     0.00000000000000     2.58027795646346
O     0.00000000000000     2.58027795646346     2.58027795646346