CRYSTAL
# Primitive lattice vectors in Angstrom
PRIMVEC
 3.17982951673969 0.00000000000000 1.83587542746678
 1.05994317224656 2.99797201907171 1.83587542746678
 0.00000000000000 0.00000000000000 3.67175085493356
# Cartesian coordinates in Angstrom.
PRIMCOORD
 3 1
Cm     0.00000000000000     0.00000000000000     0.00000000000000
O     1.05994317224656     0.74949300476793     1.83587542746678
O     3.17982951673969     2.24847901430378     5.50762628240034