CRYSTAL
# Primitive lattice vectors in Angstrom
PRIMVEC
 3.56504696549790 0.00000000000000 0.00000000000000
 -0.00000000000000 3.56504696549790 0.00000000000000
 0.00000000000000 0.00000000000000 3.56504696549790
# Cartesian coordinates in Angstrom.
PRIMCOORD
 4 1
Co     0.00000000000000     0.00000000000000     0.00000000000000
O     1.78252348274895     0.00000000000000     0.00000000000000
O     0.00000000000000     1.78252348274895     0.00000000000000
O     0.00000000000000     0.00000000000000     1.78252348274895