CRYSTAL
# Primitive lattice vectors in Angstrom
PRIMVEC
 2.80481629315047 0.00000000000000 1.61936144187787
 0.93493876438349 2.64440616115895 1.61936144187787
 0.00000000000000 0.00000000000000 3.23872288375574
# Cartesian coordinates in Angstrom.
PRIMCOORD
 3 1
Co     0.00000000000000     0.00000000000000     0.00000000000000
O     0.93493876438349     0.66110154028974     1.61936144187787
O     2.80481629315047     1.98330462086922     4.85808432563362