CRYSTAL
# Primitive lattice vectors in Angstrom
PRIMVEC
 2.47193199989172 0.00000000000000 1.42717060555593
 0.82397733329724 2.33055983967394 1.42717060555593
 0.00000000000000 0.00000000000000 2.85434121111186
# Cartesian coordinates in Angstrom.
PRIMCOORD
 2 1
Co     0.00000000000000     0.00000000000000     0.00000000000000
O     1.64795466659448     1.16527991983697     2.85434121111186