CRYSTAL
# Primitive lattice vectors in Angstrom
PRIMVEC
 4.82289394650130 0.00000000000000 0.00000000000000
 -0.00000000000000 4.82289394650130 0.00000000000000
 0.00000000000000 0.00000000000000 4.82289394650130
# Cartesian coordinates in Angstrom.
PRIMCOORD
 14 1
Co     0.00000000000000     0.00000000000000     0.00000000000000
Co     2.41144697325065     2.41144697325065     0.00000000000000
Co     2.41144697325065     0.00000000000000     2.41144697325065
Co     0.00000000000000     2.41144697325065     2.41144697325065
O     2.41144697325065     0.00000000000000     0.00000000000000
O     0.00000000000000     2.41144697325065     0.00000000000000
O     0.00000000000000     0.00000000000000     2.41144697325065
O     2.41144697325065     2.41144697325065     2.41144697325065
O     3.61717045987597     3.61717045987597     1.20572348662532
O     3.61717045987597     1.20572348662532     3.61717045987597
O     1.20572348662532     3.61717045987597     3.61717045987597
O     3.61717045987597     1.20572348662532     1.20572348662532
O     1.20572348662532     3.61717045987597     1.20572348662532
O     1.20572348662532     1.20572348662532     3.61717045987597