CRYSTAL
# Primitive lattice vectors in Angstrom
PRIMVEC
 4.42768684318945 0.00000000000000 0.00000000000000
 -0.00000000000000 4.42768684318945 0.00000000000000
 0.00000000000000 0.00000000000000 4.42768684318945
# Cartesian coordinates in Angstrom.
PRIMCOORD
 10 1
Co     1.10692171079736     1.10692171079736     1.10692171079736
Co     3.32076513239209     3.32076513239209     1.10692171079736
Co     3.32076513239209     1.10692171079736     3.32076513239209
Co     1.10692171079736     3.32076513239209     3.32076513239209
O     2.21384342159473     0.00000000000000     0.00000000000000
O     0.00000000000000     2.21384342159473     0.00000000000000
O     0.00000000000000     0.00000000000000     2.21384342159473
O     2.21384342159473     2.21384342159473     0.00000000000000
O     2.21384342159473     0.00000000000000     2.21384342159473
O     0.00000000000000     2.21384342159473     2.21384342159473