CRYSTAL
# Primitive lattice vectors in Angstrom
PRIMVEC
 2.96381917159799 0.00000000000000 1.71116179655147
 0.98793972386599 2.79431551259684 1.71116179655147
 0.00000000000000 0.00000000000000 3.42232359310295
# Cartesian coordinates in Angstrom.
PRIMCOORD
 3 1
Co     0.98793972386599     0.69857887814921     1.71116179655147
Co     2.96381917159799     2.09573663444763     5.13348538965442
O     0.00000000000000     0.00000000000000     0.00000000000000