CRYSTAL
# Primitive lattice vectors in Angstrom
PRIMVEC
 2.82263007975676 0.00000000000000 1.62964623637030
 0.94087669325225 2.66120116023617 1.62964623637030
 0.00000000000000 0.00000000000000 3.25929247274059
# Cartesian coordinates in Angstrom.
PRIMCOORD
 3 1
Cr     0.00000000000000     0.00000000000000     0.00000000000000
O     0.94087669325225     0.66530029005904     1.62964623637030
O     2.82263007975676     1.99590087017713     4.88893870911089