CRYSTAL
# Primitive lattice vectors in Angstrom
PRIMVEC
 4.80987950939463 0.00000000000000 0.00000000000000
 -0.00000000000000 4.80987950939463 0.00000000000000
 0.00000000000000 0.00000000000000 4.80987950939463
# Cartesian coordinates in Angstrom.
PRIMCOORD
 14 1
Cr     0.00000000000000     0.00000000000000     0.00000000000000
Cr     2.40493975469731     2.40493975469731     0.00000000000000
Cr     2.40493975469731     0.00000000000000     2.40493975469731
Cr     0.00000000000000     2.40493975469731     2.40493975469731
O     2.40493975469731     0.00000000000000     0.00000000000000
O     0.00000000000000     2.40493975469731     0.00000000000000
O     0.00000000000000     0.00000000000000     2.40493975469731
O     2.40493975469731     2.40493975469731     2.40493975469731
O     3.60740963204597     3.60740963204597     1.20246987734866
O     3.60740963204597     1.20246987734866     3.60740963204597
O     1.20246987734866     3.60740963204597     3.60740963204597
O     3.60740963204597     1.20246987734866     1.20246987734866
O     1.20246987734866     3.60740963204597     1.20246987734866
O     1.20246987734866     1.20246987734866     3.60740963204597