CRYSTAL
# Primitive lattice vectors in Angstrom
PRIMVEC
 2.49379572793371 0.00000000000000 1.43979363482646
 0.83126524264457 2.35117316015462 1.43979363482646
 0.00000000000000 0.00000000000000 2.87958726965293
# Cartesian coordinates in Angstrom.
PRIMCOORD
 2 1
Cr     0.00000000000000     0.00000000000000     0.00000000000000
O     1.66253048528914     1.17558658007731     2.87958726965293