CRYSTAL
# Primitive lattice vectors in Angstrom
PRIMVEC
 2.98833389008440 0.00000000000000 1.72531537586871
 0.99611129669480 2.81742821083767 1.72531537586871
 0.00000000000000 0.00000000000000 3.45063075173743
# Cartesian coordinates in Angstrom.
PRIMCOORD
 3 1
Cr     0.99611129669480     0.70435705270942     1.72531537586871
Cr     2.98833389008440     2.11307115812826     5.17594612760614
O     0.00000000000000     0.00000000000000     0.00000000000000