CRYSTAL
# Primitive lattice vectors in Angstrom
PRIMVEC
 4.52876402225605 0.00000000000000 0.00000000000000
 -0.00000000000000 4.52876402225605 0.00000000000000
 0.00000000000000 0.00000000000000 4.52876402225605
# Cartesian coordinates in Angstrom.
PRIMCOORD
 10 1
Cr     1.13219100556401     1.13219100556401     1.13219100556401
Cr     3.39657301669204     3.39657301669204     1.13219100556401
Cr     3.39657301669204     1.13219100556401     3.39657301669204
Cr     1.13219100556401     3.39657301669204     3.39657301669204
O     2.26438201112803     0.00000000000000     0.00000000000000
O     0.00000000000000     2.26438201112803     0.00000000000000
O     0.00000000000000     0.00000000000000     2.26438201112803
O     2.26438201112803     2.26438201112803     0.00000000000000
O     2.26438201112803     0.00000000000000     2.26438201112803
O     0.00000000000000     2.26438201112803     2.26438201112803