CRYSTAL
# Primitive lattice vectors in Angstrom
PRIMVEC
 3.57022704782112 0.00000000000000 0.00000000000000
 -0.00000000000000 3.57022704782112 0.00000000000000
 0.00000000000000 0.00000000000000 3.57022704782112
# Cartesian coordinates in Angstrom.
PRIMCOORD
 4 1
Cr     0.00000000000000     0.00000000000000     0.00000000000000
O     1.78511352391055     0.00000000000000     0.00000000000000
O     0.00000000000000     1.78511352391055     0.00000000000000
O     0.00000000000000     0.00000000000000     1.78511352391055