CRYSTAL
# Primitive lattice vectors in Angstrom
PRIMVEC
 5.97825470787066 0.00000000000000 0.00000000000000
 -0.00000000000000 5.97825470787066 0.00000000000000
 0.00000000000000 0.00000000000000 5.97825470787066
# Cartesian coordinates in Angstrom.
PRIMCOORD
 14 1
Cs     0.00000000000000     0.00000000000000     0.00000000000000
Cs     2.98912735393533     2.98912735393533     0.00000000000000
Cs     2.98912735393533     0.00000000000000     2.98912735393533
Cs     0.00000000000000     2.98912735393533     2.98912735393533
O     2.98912735393533     0.00000000000000     0.00000000000000
O     0.00000000000000     2.98912735393533     0.00000000000000
O     0.00000000000000     0.00000000000000     2.98912735393533
O     2.98912735393533     2.98912735393533     2.98912735393533
O     4.48369103090300     4.48369103090300     1.49456367696767
O     4.48369103090300     1.49456367696767     4.48369103090300
O     1.49456367696767     4.48369103090300     4.48369103090300
O     4.48369103090300     1.49456367696767     1.49456367696767
O     1.49456367696767     4.48369103090300     1.49456367696767
O     1.49456367696767     1.49456367696767     4.48369103090300