CRYSTAL
# Primitive lattice vectors in Angstrom
PRIMVEC
 6.23165427671805 0.00000000000000 0.00000000000000
 -0.00000000000000 6.23165427671805 0.00000000000000
 0.00000000000000 0.00000000000000 6.23165427671805
# Cartesian coordinates in Angstrom.
PRIMCOORD
 10 1
Cs     1.55791356917951     1.55791356917951     1.55791356917951
Cs     4.67374070753854     4.67374070753854     1.55791356917951
Cs     4.67374070753854     1.55791356917951     4.67374070753854
Cs     1.55791356917951     4.67374070753854     4.67374070753854
O     3.11582713835903     0.00000000000000     0.00000000000000
O     0.00000000000000     3.11582713835903     0.00000000000000
O     0.00000000000000     0.00000000000000     3.11582713835903
O     3.11582713835903     3.11582713835903     0.00000000000000
O     3.11582713835903     0.00000000000000     3.11582713835903
O     0.00000000000000     3.11582713835903     3.11582713835903