CRYSTAL
# Primitive lattice vectors in Angstrom
PRIMVEC
 3.69250659096022 0.00000000000000 2.13186967427535
 1.23083553032007 3.48132860005866 2.13186967427535
 0.00000000000000 0.00000000000000 4.26373934855070
# Cartesian coordinates in Angstrom.
PRIMCOORD
 3 1
Cs     0.00000000000000     0.00000000000000     0.00000000000000
O     1.23083553032007     0.87033215001467     2.13186967427535
O     3.69250659096022     2.61099645004400     6.39560902282606