CRYSTAL
# Primitive lattice vectors in Angstrom
PRIMVEC
 3.52288394393472 0.00000000000000 2.03393799335452
 1.17429464797824 3.32140683478593 2.03393799335452
 0.00000000000000 0.00000000000000 4.06787598670903
# Cartesian coordinates in Angstrom.
PRIMCOORD
 2 1
Cs     0.00000000000000     0.00000000000000     0.00000000000000
O     2.34858929595648     1.66070341739296     4.06787598670903