CRYSTAL
# Primitive lattice vectors in Angstrom
PRIMVEC
 4.32424744558452 0.00000000000000 2.49660542675078
 1.44141581519484 4.07693958973523 2.49660542675078
 0.00000000000000 0.00000000000000 4.99321085350155
# Cartesian coordinates in Angstrom.
PRIMCOORD
 3 1
Cs     1.44141581519484     1.01923489743380     2.49660542675078
Cs     4.32424744558452     3.05770469230142     7.48981628025233
O     0.00000000000000     0.00000000000000     0.00000000000000