CRYSTAL
# Primitive lattice vectors in Angstrom
PRIMVEC
 4.95414428433578 0.00000000000000 0.00000000000000
 -0.00000000000000 4.95414428433578 0.00000000000000
 0.00000000000000 0.00000000000000 4.95414428433578
# Cartesian coordinates in Angstrom.
PRIMCOORD
 14 1
Cu     0.00000000000000     0.00000000000000     0.00000000000000
Cu     2.47707214216789     2.47707214216789     0.00000000000000
Cu     2.47707214216789     0.00000000000000     2.47707214216789
Cu     0.00000000000000     2.47707214216789     2.47707214216789
O     2.47707214216789     0.00000000000000     0.00000000000000
O     0.00000000000000     2.47707214216789     0.00000000000000
O     0.00000000000000     0.00000000000000     2.47707214216789
O     2.47707214216789     2.47707214216789     2.47707214216789
O     3.71560821325184     3.71560821325184     1.23853607108395
O     3.71560821325184     1.23853607108395     3.71560821325184
O     1.23853607108395     3.71560821325184     3.71560821325184
O     3.71560821325184     1.23853607108395     1.23853607108395
O     1.23853607108395     3.71560821325184     1.23853607108395
O     1.23853607108395     1.23853607108395     3.71560821325184