CRYSTAL
# Primitive lattice vectors in Angstrom
PRIMVEC
 4.62650652365485 0.00000000000000 0.00000000000000
 -0.00000000000000 4.62650652365485 0.00000000000000
 0.00000000000000 0.00000000000000 4.62650652365485
# Cartesian coordinates in Angstrom.
PRIMCOORD
 10 1
Cu     1.15662663091371     1.15662663091371     1.15662663091371
Cu     3.46987989274114     3.46987989274114     1.15662663091371
Cu     3.46987989274114     1.15662663091371     3.46987989274114
Cu     1.15662663091371     3.46987989274114     3.46987989274114
O     2.31325326182743     0.00000000000000     0.00000000000000
O     0.00000000000000     2.31325326182743     0.00000000000000
O     0.00000000000000     0.00000000000000     2.31325326182743
O     2.31325326182743     2.31325326182743     0.00000000000000
O     2.31325326182743     0.00000000000000     2.31325326182743
O     0.00000000000000     2.31325326182743     2.31325326182743