CRYSTAL
# Primitive lattice vectors in Angstrom
PRIMVEC
 3.67347946619041 0.00000000000000 0.00000000000000
 -0.00000000000000 3.67347946619041 0.00000000000000
 0.00000000000000 0.00000000000000 3.67347946619041
# Cartesian coordinates in Angstrom.
PRIMCOORD
 4 1
Cu     0.00000000000000     0.00000000000000     0.00000000000000
O     1.83673973309520     0.00000000000000     0.00000000000000
O     0.00000000000000     1.83673973309520     0.00000000000000
O     0.00000000000000     0.00000000000000     1.83673973309520