CRYSTAL
# Primitive lattice vectors in Angstrom
PRIMVEC
 2.91236856710341 0.00000000000000 1.68145677619656
 0.97078952236780 2.74580741748450 1.68145677619656
 0.00000000000000 0.00000000000000 3.36291355239312
# Cartesian coordinates in Angstrom.
PRIMCOORD
 3 1
Cu     0.00000000000000     0.00000000000000     0.00000000000000
O     0.97078952236780     0.68645185437112     1.68145677619656
O     2.91236856710341     2.05935556311337     5.04437032858968