CRYSTAL
# Primitive lattice vectors in Angstrom
PRIMVEC
 2.55578250608098 0.00000000000000 1.47558171787599
 0.85192750202699 2.40961485505042 1.47558171787599
 0.00000000000000 0.00000000000000 2.95116343575198
# Cartesian coordinates in Angstrom.
PRIMCOORD
 2 1
Cu     0.00000000000000     0.00000000000000     0.00000000000000
O     1.70385500405399     1.20480742752520     2.95116343575198