CRYSTAL
# Primitive lattice vectors in Angstrom
PRIMVEC
 3.10324690192555 0.00000000000000 1.79166043418859
 1.03441563397518 2.92576923739694 1.79166043418859
 0.00000000000000 0.00000000000000 3.58332086837718
# Cartesian coordinates in Angstrom.
PRIMCOORD
 3 1
Cu     1.03441563397518     0.73144230934923     1.79166043418859
Cu     3.10324690192555     2.19432692804771     5.37498130256578
O     0.00000000000000     0.00000000000000     0.00000000000000