CRYSTAL
# Primitive lattice vectors in Angstrom
PRIMVEC
 3.18772542041072 0.00000000000000 1.84043412957674
 1.06257514013690 3.00541634844421 1.84043412957674
 0.00000000000000 0.00000000000000 3.68086825915348
# Cartesian coordinates in Angstrom.
PRIMCOORD
 3 1
Dy     0.00000000000000     0.00000000000000     0.00000000000000
O     1.06257514013690     0.75135408711105     1.84043412957674
O     3.18772542041072     2.25406226133316     5.52130238873023