CRYSTAL
# Primitive lattice vectors in Angstrom
PRIMVEC
 4.08955465488397 0.00000000000000 0.00000000000000
 -0.00000000000000 4.08955465488397 0.00000000000000
 0.00000000000000 0.00000000000000 4.08955465488397
# Cartesian coordinates in Angstrom.
PRIMCOORD
 4 1
Dy     0.00000000000000     0.00000000000000     0.00000000000000
O     2.04477732744198     0.00000000000000     0.00000000000000
O     0.00000000000000     2.04477732744198     0.00000000000000
O     0.00000000000000     0.00000000000000     2.04477732744198