CRYSTAL
# Primitive lattice vectors in Angstrom
PRIMVEC
 3.52292041848104 0.00000000000000 2.03395905194366
 1.17430680616034 3.32144122331799 2.03395905194366
 0.00000000000000 0.00000000000000 4.06791810388732
# Cartesian coordinates in Angstrom.
PRIMCOORD
 3 1
Dy     1.17430680616034     0.83036030582950     2.03395905194366
Dy     3.52292041848104     2.49108091748849     6.10187715583097
O     0.00000000000000     0.00000000000000     0.00000000000000