CRYSTAL
# Primitive lattice vectors in Angstrom
PRIMVEC
 5.28351889605888 0.00000000000000 0.00000000000000
 -0.00000000000000 5.28351889605888 0.00000000000000
 0.00000000000000 0.00000000000000 5.28351889605888
# Cartesian coordinates in Angstrom.
PRIMCOORD
 14 1
Dy     0.00000000000000     0.00000000000000     0.00000000000000
Dy     2.64175944802944     2.64175944802944     0.00000000000000
Dy     2.64175944802944     0.00000000000000     2.64175944802944
Dy     0.00000000000000     2.64175944802944     2.64175944802944
O     2.64175944802944     0.00000000000000     0.00000000000000
O     0.00000000000000     2.64175944802944     0.00000000000000
O     0.00000000000000     0.00000000000000     2.64175944802944
O     2.64175944802944     2.64175944802944     2.64175944802944
O     3.96263917204416     3.96263917204416     1.32087972401472
O     3.96263917204416     1.32087972401472     3.96263917204416
O     1.32087972401472     3.96263917204416     3.96263917204416
O     3.96263917204416     1.32087972401472     1.32087972401472
O     1.32087972401472     3.96263917204416     1.32087972401472
O     1.32087972401472     1.32087972401472     3.96263917204416