CRYSTAL
# Primitive lattice vectors in Angstrom
PRIMVEC
 5.20900234728622 0.00000000000000 0.00000000000000
 -0.00000000000000 5.20900234728622 0.00000000000000
 0.00000000000000 0.00000000000000 5.20900234728622
# Cartesian coordinates in Angstrom.
PRIMCOORD
 10 1
Dy     1.30225058682155     1.30225058682155     1.30225058682155
Dy     3.90675176046466     3.90675176046466     1.30225058682155
Dy     3.90675176046466     1.30225058682155     3.90675176046466
Dy     1.30225058682155     3.90675176046466     3.90675176046466
O     2.60450117364311     0.00000000000000     0.00000000000000
O     0.00000000000000     2.60450117364311     0.00000000000000
O     0.00000000000000     0.00000000000000     2.60450117364311
O     2.60450117364311     2.60450117364311     0.00000000000000
O     2.60450117364311     0.00000000000000     2.60450117364311
O     0.00000000000000     2.60450117364311     2.60450117364311