CRYSTAL
# Primitive lattice vectors in Angstrom
PRIMVEC
 2.90267864714067 0.00000000000000 1.67586229829764
 0.96755954904689 2.73667167333142 1.67586229829764
 0.00000000000000 0.00000000000000 3.35172459659529
# Cartesian coordinates in Angstrom.
PRIMCOORD
 2 1
Dy     0.00000000000000     0.00000000000000     0.00000000000000
O     1.93511909809378     1.36833583666570     3.35172459659529