CRYSTAL
# Primitive lattice vectors in Angstrom
PRIMVEC
 5.28857438036106 0.00000000000000 0.00000000000000
 -0.00000000000000 5.28857438036106 0.00000000000000
 0.00000000000000 0.00000000000000 5.28857438036106
# Cartesian coordinates in Angstrom.
PRIMCOORD
 14 1
Er     0.00000000000000     0.00000000000000     0.00000000000000
Er     2.64428719018053     2.64428719018053     0.00000000000000
Er     2.64428719018053     0.00000000000000     2.64428719018053
Er     0.00000000000000     2.64428719018053     2.64428719018053
O     2.64428719018053     0.00000000000000     0.00000000000000
O     0.00000000000000     2.64428719018053     0.00000000000000
O     0.00000000000000     0.00000000000000     2.64428719018053
O     2.64428719018053     2.64428719018053     2.64428719018053
O     3.96643078527079     3.96643078527079     1.32214359509026
O     3.96643078527079     1.32214359509026     3.96643078527079
O     1.32214359509026     3.96643078527079     3.96643078527079
O     3.96643078527079     1.32214359509026     1.32214359509026
O     1.32214359509026     3.96643078527079     1.32214359509026
O     1.32214359509026     1.32214359509026     3.96643078527079