CRYSTAL
# Primitive lattice vectors in Angstrom
PRIMVEC
 3.55992146172116 0.00000000000000 2.05532161421864
 1.18664048724038 3.35632614143275 2.05532161421864
 0.00000000000000 0.00000000000000 4.11064322843728
# Cartesian coordinates in Angstrom.
PRIMCOORD
 3 1
Er     1.18664048724038     0.83908153535818     2.05532161421864
Er     3.55992146172116     2.51724460607456     6.16596484265592
O     0.00000000000000     0.00000000000000     0.00000000000000