CRYSTAL
# Primitive lattice vectors in Angstrom
PRIMVEC
 2.89600089125105 0.00000000000000 1.67200689413719
 0.96533363041702 2.73037582470121 1.67200689413719
 0.00000000000000 0.00000000000000 3.34401378827438
# Cartesian coordinates in Angstrom.
PRIMCOORD
 2 1
Er     0.00000000000000     0.00000000000000     0.00000000000000
O     1.93066726083403     1.36518791235060     3.34401378827438