CRYSTAL
# Primitive lattice vectors in Angstrom
PRIMVEC
 5.19774330639129 0.00000000000000 0.00000000000000
 -0.00000000000000 5.19774330639129 0.00000000000000
 0.00000000000000 0.00000000000000 5.19774330639129
# Cartesian coordinates in Angstrom.
PRIMCOORD
 10 1
Er     1.29943582659782     1.29943582659782     1.29943582659782
Er     3.89830747979347     3.89830747979347     1.29943582659782
Er     3.89830747979347     1.29943582659782     3.89830747979347
Er     1.29943582659782     3.89830747979347     3.89830747979347
O     2.59887165319565     0.00000000000000     0.00000000000000
O     0.00000000000000     2.59887165319565     0.00000000000000
O     0.00000000000000     0.00000000000000     2.59887165319565
O     2.59887165319565     2.59887165319565     0.00000000000000
O     2.59887165319565     0.00000000000000     2.59887165319565
O     0.00000000000000     2.59887165319565     2.59887165319565