CRYSTAL
# Primitive lattice vectors in Angstrom
PRIMVEC
 4.11443777097998 0.00000000000000 0.00000000000000
 -0.00000000000000 4.11443777097998 0.00000000000000
 0.00000000000000 0.00000000000000 4.11443777097998
# Cartesian coordinates in Angstrom.
PRIMCOORD
 4 1
Er     0.00000000000000     0.00000000000000     0.00000000000000
O     2.05721888548999     0.00000000000000     0.00000000000000
O     0.00000000000000     2.05721888548999     0.00000000000000
O     0.00000000000000     0.00000000000000     2.05721888548999