CRYSTAL
# Primitive lattice vectors in Angstrom
PRIMVEC
 3.18599632491007 0.00000000000000 1.83943583582398
 1.06199877497002 3.00378614157244 1.83943583582398
 0.00000000000000 0.00000000000000 3.67887167164797
# Cartesian coordinates in Angstrom.
PRIMCOORD
 3 1
Er     0.00000000000000     0.00000000000000     0.00000000000000
O     1.06199877497002     0.75094653539311     1.83943583582398
O     3.18599632491007     2.25283960617933     5.51830750747196