CRYSTAL
# Primitive lattice vectors in Angstrom
PRIMVEC
 5.18845866422079 0.00000000000000 0.00000000000000
 -0.00000000000000 5.18845866422079 0.00000000000000
 0.00000000000000 0.00000000000000 5.18845866422079
# Cartesian coordinates in Angstrom.
PRIMCOORD
 10 1
Es     1.29711466605520     1.29711466605520     1.29711466605520
Es     3.89134399816560     3.89134399816560     1.29711466605520
Es     3.89134399816560     1.29711466605520     3.89134399816560
Es     1.29711466605520     3.89134399816560     3.89134399816560
O     2.59422933211040     0.00000000000000     0.00000000000000
O     0.00000000000000     2.59422933211040     0.00000000000000
O     0.00000000000000     0.00000000000000     2.59422933211040
O     2.59422933211040     2.59422933211040     0.00000000000000
O     2.59422933211040     0.00000000000000     2.59422933211040
O     0.00000000000000     2.59422933211040     2.59422933211040