CRYSTAL
# Primitive lattice vectors in Angstrom
PRIMVEC
 3.19043714815566 0.00000000000000 1.84199974632025
 1.06347904938522 3.00797298988045 1.84199974632025
 0.00000000000000 0.00000000000000 3.68399949264050
# Cartesian coordinates in Angstrom.
PRIMCOORD
 3 1
Es     0.00000000000000     0.00000000000000     0.00000000000000
O     1.06347904938522     0.75199324747011     1.84199974632025
O     3.19043714815566     2.25597974241034     5.52599923896076