CRYSTAL
# Primitive lattice vectors in Angstrom
PRIMVEC
 4.03976831563434 0.00000000000000 0.00000000000000
 -0.00000000000000 4.03976831563434 0.00000000000000
 0.00000000000000 0.00000000000000 4.03976831563434
# Cartesian coordinates in Angstrom.
PRIMCOORD
 4 1
Es     0.00000000000000     0.00000000000000     0.00000000000000
O     2.01988415781716     0.00000000000000     0.00000000000000
O     0.00000000000000     2.01988415781716     0.00000000000000
O     0.00000000000000     0.00000000000000     2.01988415781716