CRYSTAL
# Primitive lattice vectors in Angstrom
PRIMVEC
 5.25644199144146 0.00000000000000 0.00000000000000
 -0.00000000000000 5.25644199144146 0.00000000000000
 0.00000000000000 0.00000000000000 5.25644199144146
# Cartesian coordinates in Angstrom.
PRIMCOORD
 14 1
Es     0.00000000000000     0.00000000000000     0.00000000000000
Es     2.62822099572073     2.62822099572073     0.00000000000000
Es     2.62822099572073     0.00000000000000     2.62822099572073
Es     0.00000000000000     2.62822099572073     2.62822099572073
O     2.62822099572073     0.00000000000000     0.00000000000000
O     0.00000000000000     2.62822099572073     0.00000000000000
O     0.00000000000000     0.00000000000000     2.62822099572073
O     2.62822099572073     2.62822099572073     2.62822099572073
O     3.94233149358110     3.94233149358110     1.31411049786037
O     3.94233149358110     1.31411049786037     3.94233149358110
O     1.31411049786037     3.94233149358110     3.94233149358110
O     3.94233149358110     1.31411049786037     1.31411049786037
O     1.31411049786037     3.94233149358110     1.31411049786037
O     1.31411049786037     1.31411049786037     3.94233149358110