CRYSTAL
# Primitive lattice vectors in Angstrom
PRIMVEC
 3.50591055695130 0.00000000000000 2.02413840381059
 1.16863685231710 3.30540417207169 2.02413840381059
 0.00000000000000 0.00000000000000 4.04827680762117
# Cartesian coordinates in Angstrom.
PRIMCOORD
 3 1
Es     1.16863685231710     0.82635104301792     2.02413840381059
Es     3.50591055695130     2.47905312905377     6.07241521143176
O     0.00000000000000     0.00000000000000     0.00000000000000