CRYSTAL
# Primitive lattice vectors in Angstrom
PRIMVEC
 2.90627843245997 0.00000000000000 1.67794063532077
 0.96875947748666 2.74006558347821 1.67794063532077
 0.00000000000000 0.00000000000000 3.35588127064153
# Cartesian coordinates in Angstrom.
PRIMCOORD
 2 1
Es     0.00000000000000     0.00000000000000     0.00000000000000
O     1.93751895497331     1.37003279173910     3.35588127064153