CRYSTAL
# Primitive lattice vectors in Angstrom
PRIMVEC
 3.20984144517390 0.00000000000000 1.85320282242716
 1.06994714839130 3.02626753655479 1.85320282242716
 0.00000000000000 0.00000000000000 3.70640564485433
# Cartesian coordinates in Angstrom.
PRIMCOORD
 3 1
Eu     0.00000000000000     0.00000000000000     0.00000000000000
O     1.06994714839130     0.75656688413870     1.85320282242716
O     3.20984144517390     2.26970065241609     5.55960846728150