CRYSTAL
# Primitive lattice vectors in Angstrom
PRIMVEC
 4.08189213416195 0.00000000000000 0.00000000000000
 -0.00000000000000 4.08189213416195 0.00000000000000
 0.00000000000000 0.00000000000000 4.08189213416195
# Cartesian coordinates in Angstrom.
PRIMCOORD
 4 1
Eu     0.00000000000000     0.00000000000000     0.00000000000000
O     2.04094606708097     0.00000000000000     0.00000000000000
O     0.00000000000000     2.04094606708097     0.00000000000000
O     0.00000000000000     0.00000000000000     2.04094606708097