CRYSTAL
# Primitive lattice vectors in Angstrom
PRIMVEC
 5.25178555650336 0.00000000000000 0.00000000000000
 -0.00000000000000 5.25178555650336 0.00000000000000
 0.00000000000000 0.00000000000000 5.25178555650336
# Cartesian coordinates in Angstrom.
PRIMCOORD
 10 1
Eu     1.31294638912584     1.31294638912584     1.31294638912584
Eu     3.93883916737752     3.93883916737752     1.31294638912584
Eu     3.93883916737752     1.31294638912584     3.93883916737752
Eu     1.31294638912584     3.93883916737752     3.93883916737752
O     2.62589277825168     0.00000000000000     0.00000000000000
O     0.00000000000000     2.62589277825168     0.00000000000000
O     0.00000000000000     0.00000000000000     2.62589277825168
O     2.62589277825168     2.62589277825168     0.00000000000000
O     2.62589277825168     0.00000000000000     2.62589277825168
O     0.00000000000000     2.62589277825168     2.62589277825168