CRYSTAL
# Primitive lattice vectors in Angstrom
PRIMVEC
 2.91816908755727 0.00000000000000 1.68480570824203
 0.97272302918576 2.75127620061427 1.68480570824203
 0.00000000000000 0.00000000000000 3.36961141648406
# Cartesian coordinates in Angstrom.
PRIMCOORD
 2 1
Eu     0.00000000000000     0.00000000000000     0.00000000000000
O     1.94544605837151     1.37563810030713     3.36961141648406