CRYSTAL
# Primitive lattice vectors in Angstrom
PRIMVEC
 3.49180670390880 0.00000000000000 2.01599554045988
 1.16393556796960 3.29210693190208 2.01599554045988
 0.00000000000000 0.00000000000000 4.03199108091977
# Cartesian coordinates in Angstrom.
PRIMCOORD
 3 1
Eu     1.16393556796960     0.82302673297552     2.01599554045988
Eu     3.49180670390880     2.46908019892656     6.04798662137965
O     0.00000000000000     0.00000000000000     0.00000000000000