CRYSTAL
# Primitive lattice vectors in Angstrom
PRIMVEC
 5.29989642002355 0.00000000000000 0.00000000000000
 -0.00000000000000 5.29989642002355 0.00000000000000
 0.00000000000000 0.00000000000000 5.29989642002355
# Cartesian coordinates in Angstrom.
PRIMCOORD
 14 1
Eu     0.00000000000000     0.00000000000000     0.00000000000000
Eu     2.64994821001177     2.64994821001177     0.00000000000000
Eu     2.64994821001177     0.00000000000000     2.64994821001177
Eu     0.00000000000000     2.64994821001177     2.64994821001177
O     2.64994821001177     0.00000000000000     0.00000000000000
O     0.00000000000000     2.64994821001177     0.00000000000000
O     0.00000000000000     0.00000000000000     2.64994821001177
O     2.64994821001177     2.64994821001177     2.64994821001177
O     3.97492231501766     3.97492231501766     1.32497410500589
O     3.97492231501766     1.32497410500589     3.97492231501766
O     1.32497410500589     3.97492231501766     3.97492231501766
O     3.97492231501766     1.32497410500589     1.32497410500589
O     1.32497410500589     3.97492231501766     1.32497410500589
O     1.32497410500589     1.32497410500589     3.97492231501766