CRYSTAL
# Primitive lattice vectors in Angstrom
PRIMVEC
 4.84827976785012 0.00000000000000 0.00000000000000
 -0.00000000000000 4.84827976785012 0.00000000000000
 0.00000000000000 0.00000000000000 4.84827976785012
# Cartesian coordinates in Angstrom.
PRIMCOORD
 14 1
O     2.42413988392506     0.00000000000000     0.00000000000000
O     0.00000000000000     2.42413988392506     0.00000000000000
O     0.00000000000000     0.00000000000000     2.42413988392506
O     2.42413988392506     2.42413988392506     2.42413988392506
O     3.63620982588759     3.63620982588759     1.21206994196253
O     3.63620982588759     1.21206994196253     3.63620982588759
O     1.21206994196253     3.63620982588759     3.63620982588759
O     3.63620982588759     1.21206994196253     1.21206994196253
O     1.21206994196253     3.63620982588759     1.21206994196253
O     1.21206994196253     1.21206994196253     3.63620982588759
F     0.00000000000000     0.00000000000000     0.00000000000000
F     2.42413988392506     2.42413988392506     0.00000000000000
F     2.42413988392506     0.00000000000000     2.42413988392506
F     0.00000000000000     2.42413988392506     2.42413988392506