CRYSTAL
# Primitive lattice vectors in Angstrom
PRIMVEC
 2.98456314072176 0.00000000000000 1.72313833270914
 0.99485438024058 2.81387311424503 1.72313833270914
 0.00000000000000 0.00000000000000 3.44627666541828
# Cartesian coordinates in Angstrom.
PRIMCOORD
 3 1
O     0.00000000000000     0.00000000000000     0.00000000000000
F     0.99485438024058     0.70346827856126     1.72313833270914
F     2.98456314072176     2.11040483568377     5.16941499812742