CRYSTAL
# Primitive lattice vectors in Angstrom
PRIMVEC
 4.72739641101652 0.00000000000000 0.00000000000000
 -0.00000000000000 4.72739641101652 0.00000000000000
 0.00000000000000 0.00000000000000 4.72739641101652
# Cartesian coordinates in Angstrom.
PRIMCOORD
 10 1
O     2.36369820550826     0.00000000000000     0.00000000000000
O     0.00000000000000     2.36369820550826     0.00000000000000
O     0.00000000000000     0.00000000000000     2.36369820550826
O     2.36369820550826     2.36369820550826     0.00000000000000
O     2.36369820550826     0.00000000000000     2.36369820550826
O     0.00000000000000     2.36369820550826     2.36369820550826
F     1.18184910275413     1.18184910275413     1.18184910275413
F     3.54554730826239     3.54554730826239     1.18184910275413
F     3.54554730826239     1.18184910275413     3.54554730826239
F     1.18184910275413     3.54554730826239     3.54554730826239