CRYSTAL
# Primitive lattice vectors in Angstrom
PRIMVEC
 2.97583472892001 0.00000000000000 1.71809898180581
 0.99194490964000 2.80564388867970 1.71809898180581
 0.00000000000000 0.00000000000000 3.43619796361161
# Cartesian coordinates in Angstrom.
PRIMCOORD
 3 1
O     0.99194490964000     0.70141097216992     1.71809898180581
O     2.97583472892001     2.10423291650977     5.15429694541742
F     0.00000000000000     0.00000000000000     0.00000000000000