CRYSTAL
# Primitive lattice vectors in Angstrom
PRIMVEC
 2.52986062479833 0.00000000000000 1.46061571273955
 0.84328687493278 2.38517547100231 1.46061571273955
 0.00000000000000 0.00000000000000 2.92123142547910
# Cartesian coordinates in Angstrom.
PRIMCOORD
 2 1
O     1.68657374986555     1.19258773550115     2.92123142547910
F     0.00000000000000     0.00000000000000     0.00000000000000