CRYSTAL
# Primitive lattice vectors in Angstrom
PRIMVEC
 3.67593564922075 0.00000000000000 0.00000000000000
 -0.00000000000000 3.67593564922075 0.00000000000000
 0.00000000000000 0.00000000000000 3.67593564922075
# Cartesian coordinates in Angstrom.
PRIMCOORD
 4 1
O     1.83796782461037     0.00000000000000     0.00000000000000
O     0.00000000000000     1.83796782461037     0.00000000000000
O     0.00000000000000     0.00000000000000     1.83796782461037
F     0.00000000000000     0.00000000000000     0.00000000000000