CRYSTAL
# Primitive lattice vectors in Angstrom
PRIMVEC
 3.67176836125885 0.00000000000000 0.00000000000000
 -0.00000000000000 3.67176836125885 0.00000000000000
 0.00000000000000 0.00000000000000 3.67176836125885
# Cartesian coordinates in Angstrom.
PRIMCOORD
 4 1
O     1.83588418062942     0.00000000000000     0.00000000000000
O     0.00000000000000     1.83588418062942     0.00000000000000
O     0.00000000000000     0.00000000000000     1.83588418062942
F     0.00000000000000     0.00000000000000     0.00000000000000