CRYSTAL
# Primitive lattice vectors in Angstrom
PRIMVEC
 4.79971487408956 0.00000000000000 0.00000000000000
 -0.00000000000000 4.79971487408956 0.00000000000000
 0.00000000000000 0.00000000000000 4.79971487408956
# Cartesian coordinates in Angstrom.
PRIMCOORD
 14 1
Fe     0.00000000000000     0.00000000000000     0.00000000000000
Fe     2.39985743704478     2.39985743704478     0.00000000000000
Fe     2.39985743704478     0.00000000000000     2.39985743704478
Fe     0.00000000000000     2.39985743704478     2.39985743704478
O     2.39985743704478     0.00000000000000     0.00000000000000
O     0.00000000000000     2.39985743704478     0.00000000000000
O     0.00000000000000     0.00000000000000     2.39985743704478
O     2.39985743704478     2.39985743704478     2.39985743704478
O     3.59978615556717     3.59978615556717     1.19992871852239
O     3.59978615556717     1.19992871852239     3.59978615556717
O     1.19992871852239     3.59978615556717     3.59978615556717
O     3.59978615556717     1.19992871852239     1.19992871852239
O     1.19992871852239     3.59978615556717     1.19992871852239
O     1.19992871852239     1.19992871852239     3.59978615556717