CRYSTAL
# Primitive lattice vectors in Angstrom
PRIMVEC
 3.53939556181082 0.00000000000000 0.00000000000000
 -0.00000000000000 3.53939556181082 0.00000000000000
 0.00000000000000 0.00000000000000 3.53939556181082
# Cartesian coordinates in Angstrom.
PRIMCOORD
 4 1
Fe     0.00000000000000     0.00000000000000     0.00000000000000
O     1.76969778090541     0.00000000000000     0.00000000000000
O     0.00000000000000     1.76969778090541     0.00000000000000
O     0.00000000000000     0.00000000000000     1.76969778090541