CRYSTAL
# Primitive lattice vectors in Angstrom
PRIMVEC
 2.77355415140402 0.00000000000000 1.60131223592511
 0.92451805046800 2.61493193126118 1.60131223592511
 0.00000000000000 0.00000000000000 3.20262447185023
# Cartesian coordinates in Angstrom.
PRIMCOORD
 3 1
Fe     0.00000000000000     0.00000000000000     0.00000000000000
O     0.92451805046800     0.65373298281529     1.60131223592511
O     2.77355415140402     1.96119894844588     4.80393670777535