CRYSTAL
# Primitive lattice vectors in Angstrom
PRIMVEC
 4.43366883435178 0.00000000000000 0.00000000000000
 -0.00000000000000 4.43366883435178 0.00000000000000
 0.00000000000000 0.00000000000000 4.43366883435178
# Cartesian coordinates in Angstrom.
PRIMCOORD
 10 1
Fe     1.10841720858794     1.10841720858794     1.10841720858794
Fe     3.32525162576384     3.32525162576384     1.10841720858794
Fe     3.32525162576384     1.10841720858794     3.32525162576384
Fe     1.10841720858794     3.32525162576384     3.32525162576384
O     2.21683441717589     0.00000000000000     0.00000000000000
O     0.00000000000000     2.21683441717589     0.00000000000000
O     0.00000000000000     0.00000000000000     2.21683441717589
O     2.21683441717589     2.21683441717589     0.00000000000000
O     2.21683441717589     0.00000000000000     2.21683441717589
O     0.00000000000000     2.21683441717589     2.21683441717589