CRYSTAL
# Primitive lattice vectors in Angstrom
PRIMVEC
 2.95088316206549 0.00000000000000 1.70369318796565
 0.98362772068849 2.78211932584761 1.70369318796565
 0.00000000000000 0.00000000000000 3.40738637593129
# Cartesian coordinates in Angstrom.
PRIMCOORD
 3 1
Fe     0.98362772068849     0.69552983146190     1.70369318796565
Fe     2.95088316206549     2.08658949438571     5.11107956389694
O     0.00000000000000     0.00000000000000     0.00000000000000