CRYSTAL
# Primitive lattice vectors in Angstrom
PRIMVEC
 2.46704370363952 0.00000000000000 1.42434834639885
 0.82234790121317 2.32595110976944 1.42434834639885
 0.00000000000000 0.00000000000000 2.84869669279770
# Cartesian coordinates in Angstrom.
PRIMCOORD
 2 1
Fe     0.00000000000000     0.00000000000000     0.00000000000000
O     1.64469580242635     1.16297555488472     2.84869669279770