CRYSTAL
# Primitive lattice vectors in Angstrom
PRIMVEC
 5.22326682247942 0.00000000000000 0.00000000000000
 -0.00000000000000 5.22326682247942 0.00000000000000
 0.00000000000000 0.00000000000000 5.22326682247942
# Cartesian coordinates in Angstrom.
PRIMCOORD
 10 1
Fm     1.30581670561985     1.30581670561985     1.30581670561985
Fm     3.91745011685957     3.91745011685957     1.30581670561985
Fm     3.91745011685957     1.30581670561985     3.91745011685957
Fm     1.30581670561985     3.91745011685957     3.91745011685957
O     2.61163341123971     0.00000000000000     0.00000000000000
O     0.00000000000000     2.61163341123971     0.00000000000000
O     0.00000000000000     0.00000000000000     2.61163341123971
O     2.61163341123971     2.61163341123971     0.00000000000000
O     2.61163341123971     0.00000000000000     2.61163341123971
O     0.00000000000000     2.61163341123971     2.61163341123971