CRYSTAL
# Primitive lattice vectors in Angstrom
PRIMVEC
 2.93271980936901 0.00000000000000 1.69320657139694
 0.97757326978967 2.76499475269992 1.69320657139694
 0.00000000000000 0.00000000000000 3.38641314279388
# Cartesian coordinates in Angstrom.
PRIMCOORD
 2 1
Fm     0.00000000000000     0.00000000000000     0.00000000000000
O     1.95514653957934     1.38249737634996     3.38641314279388