CRYSTAL
# Primitive lattice vectors in Angstrom
PRIMVEC
 4.07611562602676 0.00000000000000 0.00000000000000
 -0.00000000000000 4.07611562602676 0.00000000000000
 0.00000000000000 0.00000000000000 4.07611562602676
# Cartesian coordinates in Angstrom.
PRIMCOORD
 4 1
Fm     0.00000000000000     0.00000000000000     0.00000000000000
O     2.03805781301338     0.00000000000000     0.00000000000000
O     0.00000000000000     2.03805781301338     0.00000000000000
O     0.00000000000000     0.00000000000000     2.03805781301338