CRYSTAL
# Primitive lattice vectors in Angstrom
PRIMVEC
 3.56445106662342 0.00000000000000 2.05793678282828
 1.18815035554114 3.36059669388939 2.05793678282828
 0.00000000000000 0.00000000000000 4.11587356565657
# Cartesian coordinates in Angstrom.
PRIMCOORD
 3 1
Fm     1.18815035554114     0.84014917347235     2.05793678282828
Fm     3.56445106662342     2.52044752041705     6.17381034848485
O     0.00000000000000     0.00000000000000     0.00000000000000