CRYSTAL
# Primitive lattice vectors in Angstrom
PRIMVEC
 3.20996350421603 0.00000000000000 1.85327329324800
 1.06998783473867 3.02638261492332 1.85327329324800
 0.00000000000000 0.00000000000000 3.70654658649600
# Cartesian coordinates in Angstrom.
PRIMCOORD
 3 1
Fm     0.00000000000000     0.00000000000000     0.00000000000000
O     1.06998783473867     0.75659565373083     1.85327329324800
O     3.20996350421603     2.26978696119249     5.55981987974401