CRYSTAL
# Primitive lattice vectors in Angstrom
PRIMVEC
 5.29250354733861 0.00000000000000 0.00000000000000
 -0.00000000000000 5.29250354733861 0.00000000000000
 0.00000000000000 0.00000000000000 5.29250354733861
# Cartesian coordinates in Angstrom.
PRIMCOORD
 14 1
Fm     0.00000000000000     0.00000000000000     0.00000000000000
Fm     2.64625177366930     2.64625177366930     0.00000000000000
Fm     2.64625177366930     0.00000000000000     2.64625177366930
Fm     0.00000000000000     2.64625177366930     2.64625177366930
O     2.64625177366930     0.00000000000000     0.00000000000000
O     0.00000000000000     2.64625177366930     0.00000000000000
O     0.00000000000000     0.00000000000000     2.64625177366930
O     2.64625177366930     2.64625177366930     2.64625177366930
O     3.96937766050395     3.96937766050395     1.32312588683465
O     3.96937766050395     1.32312588683465     3.96937766050395
O     1.32312588683465     3.96937766050395     3.96937766050395
O     3.96937766050395     1.32312588683465     1.32312588683465
O     1.32312588683465     3.96937766050395     1.32312588683465
O     1.32312588683465     1.32312588683465     3.96937766050395