CRYSTAL
# Primitive lattice vectors in Angstrom
PRIMVEC
 4.24229114363600 0.00000000000000 0.00000000000000
 -0.00000000000000 4.24229114363600 0.00000000000000
 0.00000000000000 0.00000000000000 4.24229114363600
# Cartesian coordinates in Angstrom.
PRIMCOORD
 4 1
Fr     0.00000000000000     0.00000000000000     0.00000000000000
O     2.12114557181799     0.00000000000000     0.00000000000000
O     0.00000000000000     2.12114557181799     0.00000000000000
O     0.00000000000000     0.00000000000000     2.12114557181799