CRYSTAL
# Primitive lattice vectors in Angstrom
PRIMVEC
 3.58070143274911 0.00000000000000 2.06731893608537
 1.19356714424970 3.37591768600171 2.06731893608537
 0.00000000000000 0.00000000000000 4.13463787217075
# Cartesian coordinates in Angstrom.
PRIMCOORD
 2 1
Fr     0.00000000000000     0.00000000000000     0.00000000000000
O     2.38713428849940     1.68795884300085     4.13463787217075