CRYSTAL
# Primitive lattice vectors in Angstrom
PRIMVEC
 6.16749786531852 0.00000000000000 0.00000000000000
 -0.00000000000000 6.16749786531852 0.00000000000000
 0.00000000000000 0.00000000000000 6.16749786531852
# Cartesian coordinates in Angstrom.
PRIMCOORD
 10 1
Fr     1.54187446632963     1.54187446632963     1.54187446632963
Fr     4.62562339898889     4.62562339898889     1.54187446632963
Fr     4.62562339898889     1.54187446632963     4.62562339898889
Fr     1.54187446632963     4.62562339898889     4.62562339898889
O     3.08374893265926     0.00000000000000     0.00000000000000
O     0.00000000000000     3.08374893265926     0.00000000000000
O     0.00000000000000     0.00000000000000     3.08374893265926
O     3.08374893265926     3.08374893265926     0.00000000000000
O     3.08374893265926     0.00000000000000     3.08374893265926
O     0.00000000000000     3.08374893265926     3.08374893265926