CRYSTAL
# Primitive lattice vectors in Angstrom
PRIMVEC
 5.88172378443721 0.00000000000000 0.00000000000000
 -0.00000000000000 5.88172378443721 0.00000000000000
 0.00000000000000 0.00000000000000 5.88172378443721
# Cartesian coordinates in Angstrom.
PRIMCOORD
 14 1
Fr     0.00000000000000     0.00000000000000     0.00000000000000
Fr     2.94086189221860     2.94086189221860     0.00000000000000
Fr     2.94086189221860     0.00000000000000     2.94086189221860
Fr     0.00000000000000     2.94086189221860     2.94086189221860
O     2.94086189221860     0.00000000000000     0.00000000000000
O     0.00000000000000     2.94086189221860     0.00000000000000
O     0.00000000000000     0.00000000000000     2.94086189221860
O     2.94086189221860     2.94086189221860     2.94086189221860
O     4.41129283832790     4.41129283832790     1.47043094610930
O     4.41129283832790     1.47043094610930     4.41129283832790
O     1.47043094610930     4.41129283832790     4.41129283832790
O     4.41129283832790     1.47043094610930     1.47043094610930
O     1.47043094610930     4.41129283832790     1.47043094610930
O     1.47043094610930     1.47043094610930     4.41129283832790