CRYSTAL
# Primitive lattice vectors in Angstrom
PRIMVEC
 3.66569418165832 0.00000000000000 2.11638952254727
 1.22189806055277 3.45604961814223 2.11638952254727
 0.00000000000000 0.00000000000000 4.23277904509454
# Cartesian coordinates in Angstrom.
PRIMCOORD
 3 1
Fr     0.00000000000000     0.00000000000000     0.00000000000000
O     1.22189806055277     0.86401240453556     2.11638952254727
O     3.66569418165832     2.59203721360667     6.34916856764182