CRYSTAL
# Primitive lattice vectors in Angstrom
PRIMVEC
 4.47156379257038 0.00000000000000 2.58165855933909
 1.49052126419012 4.21583077364633 2.58165855933909
 0.00000000000000 0.00000000000000 5.16331711867818
# Cartesian coordinates in Angstrom.
PRIMCOORD
 3 1
Fr     1.49052126419012     1.05395769341158     2.58165855933909
Fr     4.47156379257038     3.16187308023475     7.74497567801728
O     0.00000000000000     0.00000000000000     0.00000000000000