CRYSTAL
# Primitive lattice vectors in Angstrom
PRIMVEC
 5.05687176858932 0.00000000000000 0.00000000000000
 -0.00000000000000 5.05687176858932 0.00000000000000
 0.00000000000000 0.00000000000000 5.05687176858932
# Cartesian coordinates in Angstrom.
PRIMCOORD
 14 1
Ga     0.00000000000000     0.00000000000000     0.00000000000000
Ga     2.52843588429466     2.52843588429466     0.00000000000000
Ga     2.52843588429466     0.00000000000000     2.52843588429466
Ga     0.00000000000000     2.52843588429466     2.52843588429466
O     2.52843588429466     0.00000000000000     0.00000000000000
O     0.00000000000000     2.52843588429466     0.00000000000000
O     0.00000000000000     0.00000000000000     2.52843588429466
O     2.52843588429466     2.52843588429466     2.52843588429466
O     3.79265382644199     3.79265382644199     1.26421794214733
O     3.79265382644199     1.26421794214733     3.79265382644199
O     1.26421794214733     3.79265382644199     3.79265382644199
O     3.79265382644199     1.26421794214733     1.26421794214733
O     1.26421794214733     3.79265382644199     1.26421794214733
O     1.26421794214733     1.26421794214733     3.79265382644199