CRYSTAL
# Primitive lattice vectors in Angstrom
PRIMVEC
 3.80653123151842 0.00000000000000 0.00000000000000
 -0.00000000000000 3.80653123151842 0.00000000000000
 0.00000000000000 0.00000000000000 3.80653123151842
# Cartesian coordinates in Angstrom.
PRIMCOORD
 4 1
Ga     0.00000000000000     0.00000000000000     0.00000000000000
O     1.90326561575920     0.00000000000000     0.00000000000000
O     0.00000000000000     1.90326561575920     0.00000000000000
O     0.00000000000000     0.00000000000000     1.90326561575920