CRYSTAL
# Primitive lattice vectors in Angstrom
PRIMVEC
 2.95746307557019 0.00000000000000 1.70749210279883
 0.98582102519006 2.78832292779267 1.70749210279883
 0.00000000000000 0.00000000000000 3.41498420559765
# Cartesian coordinates in Angstrom.
PRIMCOORD
 3 1
Ga     0.00000000000000     0.00000000000000     0.00000000000000
O     0.98582102519006     0.69708073194817     1.70749210279883
O     2.95746307557019     2.09124219584450     5.12247630839648