CRYSTAL
# Primitive lattice vectors in Angstrom
PRIMVEC
 2.77563088191837 0.00000000000000 1.60251123684660
 0.92521029397279 2.61688989156703 1.60251123684660
 0.00000000000000 0.00000000000000 3.20502247369321
# Cartesian coordinates in Angstrom.
PRIMCOORD
 2 1
Ga     0.00000000000000     0.00000000000000     0.00000000000000
O     1.85042058794558     1.30844494578351     3.20502247369321