CRYSTAL
# Primitive lattice vectors in Angstrom
PRIMVEC
 3.57031105993207 0.00000000000000 2.06132005154248
 1.19010368664402 3.36612154856440 2.06132005154248
 0.00000000000000 0.00000000000000 4.12264010308496
# Cartesian coordinates in Angstrom.
PRIMCOORD
 3 1
Ga     1.19010368664402     0.84153038714110     2.06132005154248
Ga     3.57031105993207     2.52459116142330     6.18396015462744
O     0.00000000000000     0.00000000000000     0.00000000000000