CRYSTAL
# Primitive lattice vectors in Angstrom
PRIMVEC
 4.74620625604133 0.00000000000000 0.00000000000000
 -0.00000000000000 4.74620625604133 0.00000000000000
 0.00000000000000 0.00000000000000 4.74620625604133
# Cartesian coordinates in Angstrom.
PRIMCOORD
 10 1
Ga     1.18655156401033     1.18655156401033     1.18655156401033
Ga     3.55965469203100     3.55965469203100     1.18655156401033
Ga     3.55965469203100     1.18655156401033     3.55965469203100
Ga     1.18655156401033     3.55965469203100     3.55965469203100
O     2.37310312802067     0.00000000000000     0.00000000000000
O     0.00000000000000     2.37310312802067     0.00000000000000
O     0.00000000000000     0.00000000000000     2.37310312802067
O     2.37310312802067     2.37310312802067     0.00000000000000
O     2.37310312802067     0.00000000000000     2.37310312802067
O     0.00000000000000     2.37310312802067     2.37310312802067