CRYSTAL
# Primitive lattice vectors in Angstrom
PRIMVEC
 2.91192076934589 0.00000000000000 1.68119824004071
 0.97064025644863 2.74538522970991 1.68119824004071
 0.00000000000000 0.00000000000000 3.36239648008142
# Cartesian coordinates in Angstrom.
PRIMCOORD
 2 1
Gd     0.00000000000000     0.00000000000000     0.00000000000000
O     1.94128051289726     1.37269261485495     3.36239648008142