CRYSTAL
# Primitive lattice vectors in Angstrom
PRIMVEC
 3.19986894738797 0.00000000000000 1.84744519814597
 1.06662298246265 3.01686537547506 1.84744519814597
 0.00000000000000 0.00000000000000 3.69489039629194
# Cartesian coordinates in Angstrom.
PRIMCOORD
 3 1
Gd     0.00000000000000     0.00000000000000     0.00000000000000
O     1.06662298246265     0.75421634386877     1.84744519814597
O     3.19986894738797     2.26264903160630     5.54233559443792