CRYSTAL
# Primitive lattice vectors in Angstrom
PRIMVEC
 5.29242401962441 0.00000000000000 0.00000000000000
 -0.00000000000000 5.29242401962441 0.00000000000000
 0.00000000000000 0.00000000000000 5.29242401962441
# Cartesian coordinates in Angstrom.
PRIMCOORD
 14 1
Gd     0.00000000000000     0.00000000000000     0.00000000000000
Gd     2.64621200981220     2.64621200981220     0.00000000000000
Gd     2.64621200981220     0.00000000000000     2.64621200981220
Gd     0.00000000000000     2.64621200981220     2.64621200981220
O     2.64621200981220     0.00000000000000     0.00000000000000
O     0.00000000000000     2.64621200981220     0.00000000000000
O     0.00000000000000     0.00000000000000     2.64621200981220
O     2.64621200981220     2.64621200981220     2.64621200981220
O     3.96931801471831     3.96931801471831     1.32310600490610
O     3.96931801471831     1.32310600490610     3.96931801471831
O     1.32310600490610     3.96931801471831     3.96931801471831
O     3.96931801471831     1.32310600490610     1.32310600490610
O     1.32310600490610     3.96931801471831     1.32310600490610
O     1.32310600490610     1.32310600490610     3.96931801471831