CRYSTAL
# Primitive lattice vectors in Angstrom
PRIMVEC
 3.49920786967869 0.00000000000000 2.02026860550945
 1.16640262322623 3.29908481790818 2.02026860550945
 0.00000000000000 0.00000000000000 4.04053721101890
# Cartesian coordinates in Angstrom.
PRIMCOORD
 3 1
Gd     1.16640262322623     0.82477120447704     2.02026860550945
Gd     3.49920786967869     2.47431361343114     6.06080581652835
O     0.00000000000000     0.00000000000000     0.00000000000000