CRYSTAL
# Primitive lattice vectors in Angstrom
PRIMVEC
 5.23544309987037 0.00000000000000 0.00000000000000
 -0.00000000000000 5.23544309987037 0.00000000000000
 0.00000000000000 0.00000000000000 5.23544309987037
# Cartesian coordinates in Angstrom.
PRIMCOORD
 10 1
Gd     1.30886077496759     1.30886077496759     1.30886077496759
Gd     3.92658232490278     3.92658232490278     1.30886077496759
Gd     3.92658232490278     1.30886077496759     3.92658232490278
Gd     1.30886077496759     3.92658232490278     3.92658232490278
O     2.61772154993519     0.00000000000000     0.00000000000000
O     0.00000000000000     2.61772154993519     0.00000000000000
O     0.00000000000000     0.00000000000000     2.61772154993519
O     2.61772154993519     2.61772154993519     0.00000000000000
O     2.61772154993519     0.00000000000000     2.61772154993519
O     0.00000000000000     2.61772154993519     2.61772154993519