CRYSTAL
# Primitive lattice vectors in Angstrom
PRIMVEC
 4.08005690102495 0.00000000000000 0.00000000000000
 -0.00000000000000 4.08005690102495 0.00000000000000
 0.00000000000000 0.00000000000000 4.08005690102495
# Cartesian coordinates in Angstrom.
PRIMCOORD
 4 1
Gd     0.00000000000000     0.00000000000000     0.00000000000000
O     2.04002845051247     0.00000000000000     0.00000000000000
O     0.00000000000000     2.04002845051247     0.00000000000000
O     0.00000000000000     0.00000000000000     2.04002845051247