CRYSTAL
# Primitive lattice vectors in Angstrom
PRIMVEC
 3.67218408059009 0.00000000000000 0.00000000000000
 -0.00000000000000 3.67218408059009 0.00000000000000
 0.00000000000000 0.00000000000000 3.67218408059009
# Cartesian coordinates in Angstrom.
PRIMCOORD
 4 1
Ge     0.00000000000000     0.00000000000000     0.00000000000000
O     1.83609204029504     0.00000000000000     0.00000000000000
O     0.00000000000000     1.83609204029504     0.00000000000000
O     0.00000000000000     0.00000000000000     1.83609204029504