CRYSTAL
# Primitive lattice vectors in Angstrom
PRIMVEC
 2.92380237360364 0.00000000000000 1.68805808745732
 0.97460079120121 2.75658731363261 1.68805808745732
 0.00000000000000 0.00000000000000 3.37611617491465
# Cartesian coordinates in Angstrom.
PRIMCOORD
 3 1
Ge     0.00000000000000     0.00000000000000     0.00000000000000
O     0.97460079120121     0.68914682840815     1.68805808745732
O     2.92380237360363     2.06744048522446     5.06417426237198