CRYSTAL
# Primitive lattice vectors in Angstrom
PRIMVEC
 3.51110325831205 0.00000000000000 2.02713641133903
 1.17036775277068 3.31029989786484 2.02713641133903
 0.00000000000000 0.00000000000000 4.05427282267807
# Cartesian coordinates in Angstrom.
PRIMCOORD
 3 1
Ge     1.17036775277068     0.82757497446621     2.02713641133903
Ge     3.51110325831205     2.48272492339863     6.08140923401711
O     0.00000000000000     0.00000000000000     0.00000000000000