CRYSTAL
# Primitive lattice vectors in Angstrom
PRIMVEC
 4.87287455835143 0.00000000000000 0.00000000000000
 -0.00000000000000 4.87287455835143 0.00000000000000
 0.00000000000000 0.00000000000000 4.87287455835143
# Cartesian coordinates in Angstrom.
PRIMCOORD
 10 1
Ge     1.21821863958786     1.21821863958786     1.21821863958786
Ge     3.65465591876358     3.65465591876358     1.21821863958786
Ge     3.65465591876358     1.21821863958786     3.65465591876358
Ge     1.21821863958786     3.65465591876358     3.65465591876358
O     2.43643727917572     0.00000000000000     0.00000000000000
O     0.00000000000000     2.43643727917572     0.00000000000000
O     0.00000000000000     0.00000000000000     2.43643727917572
O     2.43643727917572     2.43643727917572     0.00000000000000
O     2.43643727917572     0.00000000000000     2.43643727917572
O     0.00000000000000     2.43643727917572     2.43643727917572