CRYSTAL
# Primitive lattice vectors in Angstrom
PRIMVEC
 5.08982046930260 0.00000000000000 0.00000000000000
 -0.00000000000000 5.08982046930260 0.00000000000000
 0.00000000000000 0.00000000000000 5.08982046930260
# Cartesian coordinates in Angstrom.
PRIMCOORD
 14 1
Ge     0.00000000000000     0.00000000000000     0.00000000000000
Ge     2.54491023465130     2.54491023465130     0.00000000000000
Ge     2.54491023465130     0.00000000000000     2.54491023465130
Ge     0.00000000000000     2.54491023465130     2.54491023465130
O     2.54491023465130     0.00000000000000     0.00000000000000
O     0.00000000000000     2.54491023465130     0.00000000000000
O     0.00000000000000     0.00000000000000     2.54491023465130
O     2.54491023465130     2.54491023465130     2.54491023465130
O     3.81736535197695     3.81736535197695     1.27245511732565
O     3.81736535197695     1.27245511732565     3.81736535197695
O     1.27245511732565     3.81736535197695     3.81736535197695
O     3.81736535197695     1.27245511732565     1.27245511732565
O     1.27245511732565     3.81736535197695     1.27245511732565
O     1.27245511732565     1.27245511732565     3.81736535197695