CRYSTAL
# Primitive lattice vectors in Angstrom
PRIMVEC
 2.87746069437975 0.00000000000000 1.66130270648272
 0.95915356479325 2.71289595945823 1.66130270648272
 0.00000000000000 0.00000000000000 3.32260541296543
# Cartesian coordinates in Angstrom.
PRIMCOORD
 2 1
Ge     0.00000000000000     0.00000000000000     0.00000000000000
O     1.91830712958650     1.35644797972911     3.32260541296543