CRYSTAL
# Primitive lattice vectors in Angstrom
PRIMVEC
 3.89851602307490 0.00000000000000 0.00000000000000
 -0.00000000000000 3.89851602307490 0.00000000000000
 0.00000000000000 0.00000000000000 3.89851602307490
# Cartesian coordinates in Angstrom.
PRIMCOORD
 10 1
H     0.97462900576872     0.97462900576872     0.97462900576872
H     2.92388701730618     2.92388701730618     0.97462900576872
H     2.92388701730618     0.97462900576872     2.92388701730618
H     0.97462900576872     2.92388701730618     2.92388701730618
O     1.94925801153745     0.00000000000000     0.00000000000000
O     0.00000000000000     1.94925801153745     0.00000000000000
O     0.00000000000000     0.00000000000000     1.94925801153745
O     1.94925801153745     1.94925801153745     0.00000000000000
O     1.94925801153745     0.00000000000000     1.94925801153745
O     0.00000000000000     1.94925801153745     1.94925801153745