CRYSTAL
# Primitive lattice vectors in Angstrom
PRIMVEC
 2.20193347837009 0.00000000000000 1.27128688647462
 0.73397782612336 2.07600279236956 1.27128688647462
 0.00000000000000 0.00000000000000 2.54257377294925
# Cartesian coordinates in Angstrom.
PRIMCOORD
 3 1
H     0.73397782612336     0.51900069809239     1.27128688647462
H     2.20193347837009     1.55700209427718     3.81386065942387
O     0.00000000000000     0.00000000000000     0.00000000000000