CRYSTAL
# Primitive lattice vectors in Angstrom
PRIMVEC
 4.61326579939625 0.00000000000000 0.00000000000000
 -0.00000000000000 4.61326579939625 0.00000000000000
 0.00000000000000 0.00000000000000 4.61326579939625
# Cartesian coordinates in Angstrom.
PRIMCOORD
 14 1
H     0.00000000000000     0.00000000000000     0.00000000000000
H     2.30663289969812     2.30663289969812     0.00000000000000
H     2.30663289969812     0.00000000000000     2.30663289969812
H     0.00000000000000     2.30663289969812     2.30663289969812
O     2.30663289969812     0.00000000000000     0.00000000000000
O     0.00000000000000     2.30663289969812     0.00000000000000
O     0.00000000000000     0.00000000000000     2.30663289969812
O     2.30663289969812     2.30663289969812     2.30663289969812
O     3.45994934954718     3.45994934954718     1.15331644984906
O     3.45994934954718     1.15331644984906     3.45994934954718
O     1.15331644984906     3.45994934954718     3.45994934954718
O     3.45994934954718     1.15331644984906     1.15331644984906
O     1.15331644984906     3.45994934954718     1.15331644984906
O     1.15331644984906     1.15331644984906     3.45994934954718