CRYSTAL
# Primitive lattice vectors in Angstrom
PRIMVEC
 2.06547595919846 0.00000000000000 1.19250310104793
 0.68849198639949 1.94734940950269 1.19250310104793
 0.00000000000000 0.00000000000000 2.38500620209585
# Cartesian coordinates in Angstrom.
PRIMCOORD
 2 1
H     0.00000000000000     0.00000000000000     0.00000000000000
O     1.37698397279897     0.97367470475134     2.38500620209585