CRYSTAL
# Primitive lattice vectors in Angstrom
PRIMVEC
 3.09465605189800 0.00000000000000 0.00000000000000
 -0.00000000000000 3.09465605189800 0.00000000000000
 0.00000000000000 0.00000000000000 3.09465605189800
# Cartesian coordinates in Angstrom.
PRIMCOORD
 4 1
H     0.00000000000000     0.00000000000000     0.00000000000000
O     1.54732802594900     0.00000000000000     0.00000000000000
O     0.00000000000000     1.54732802594900     0.00000000000000
O     0.00000000000000     0.00000000000000     1.54732802594900