CRYSTAL
# Primitive lattice vectors in Angstrom
PRIMVEC
 2.55932293840611 0.00000000000000 1.47762578743195
 0.85310764613537 2.41295280665765 1.47762578743195
 0.00000000000000 0.00000000000000 2.95525157486390
# Cartesian coordinates in Angstrom.
PRIMCOORD
 3 1
H     0.00000000000000     0.00000000000000     0.00000000000000
O     0.85310764613537     0.60323820166441     1.47762578743195
O     2.55932293840611     1.80971460499324     4.43287736229585