CRYSTAL
# Primitive lattice vectors in Angstrom
PRIMVEC
 4.72811655678092 0.00000000000000 0.00000000000000
 -0.00000000000000 4.72811655678092 0.00000000000000
 0.00000000000000 0.00000000000000 4.72811655678092
# Cartesian coordinates in Angstrom.
PRIMCOORD
 14 1
He     0.00000000000000     0.00000000000000     0.00000000000000
He     2.36405827839046     2.36405827839046     0.00000000000000
He     2.36405827839046     0.00000000000000     2.36405827839046
He     0.00000000000000     2.36405827839046     2.36405827839046
O     2.36405827839046     0.00000000000000     0.00000000000000
O     0.00000000000000     2.36405827839046     0.00000000000000
O     0.00000000000000     0.00000000000000     2.36405827839046
O     2.36405827839046     2.36405827839046     2.36405827839046
O     3.54608741758569     3.54608741758569     1.18202913919523
O     3.54608741758569     1.18202913919523     3.54608741758569
O     1.18202913919523     3.54608741758569     3.54608741758569
O     3.54608741758569     1.18202913919523     1.18202913919523
O     1.18202913919523     3.54608741758569     1.18202913919523
O     1.18202913919523     1.18202913919523     3.54608741758569