CRYSTAL
# Primitive lattice vectors in Angstrom
PRIMVEC
 3.38091775593191 0.00000000000000 0.00000000000000
 -0.00000000000000 3.38091775593191 0.00000000000000
 0.00000000000000 0.00000000000000 3.38091775593191
# Cartesian coordinates in Angstrom.
PRIMCOORD
 4 1
He     0.00000000000000     0.00000000000000     0.00000000000000
O     1.69045887796595     0.00000000000000     0.00000000000000
O     0.00000000000000     1.69045887796595     0.00000000000000
O     0.00000000000000     0.00000000000000     1.69045887796595