CRYSTAL
# Primitive lattice vectors in Angstrom
PRIMVEC
 4.48400777479500 0.00000000000000 2.58884309582627
 1.49466925826500 4.22756307260100 2.58884309582627
 0.00000000000000 0.00000000000000 5.17768619165254
# Cartesian coordinates in Angstrom.
PRIMCOORD
 3 1
He     1.49466925826500     1.05689076815025     2.58884309582627
He     4.48400777479500     3.17067230445075     7.76652928747882
O     0.00000000000000     0.00000000000000     0.00000000000000