CRYSTAL
# Primitive lattice vectors in Angstrom
PRIMVEC
 4.39269315184267 0.00000000000000 0.00000000000000
 -0.00000000000000 4.39269315184267 0.00000000000000
 0.00000000000000 0.00000000000000 4.39269315184267
# Cartesian coordinates in Angstrom.
PRIMCOORD
 10 1
He     1.09817328796067     1.09817328796067     1.09817328796067
He     3.29451986388201     3.29451986388201     1.09817328796067
He     3.29451986388201     1.09817328796067     3.29451986388201
He     1.09817328796067     3.29451986388201     3.29451986388201
O     2.19634657592134     0.00000000000000     0.00000000000000
O     0.00000000000000     2.19634657592134     0.00000000000000
O     0.00000000000000     0.00000000000000     2.19634657592134
O     2.19634657592134     2.19634657592134     0.00000000000000
O     2.19634657592134     0.00000000000000     2.19634657592134
O     0.00000000000000     2.19634657592134     2.19634657592134