CRYSTAL
# Primitive lattice vectors in Angstrom
PRIMVEC
 2.75010559514251 0.00000000000000 1.58777420565542
 0.91670186504750 2.59282442040578 1.58777420565542
 0.00000000000000 0.00000000000000 3.17554841131085
# Cartesian coordinates in Angstrom.
PRIMCOORD
 3 1
He     0.00000000000000     0.00000000000000     0.00000000000000
O     0.91670186504750     0.64820610510145     1.58777420565542
O     2.75010559514251     1.94461831530434     4.76332261696628