CRYSTAL
# Primitive lattice vectors in Angstrom
PRIMVEC
 2.82209583638962 0.00000000000000 1.62933779081847
 0.94069861212987 2.66069747075923 1.62933779081847
 0.00000000000000 0.00000000000000 3.25867558163693
# Cartesian coordinates in Angstrom.
PRIMCOORD
 2 1
He     0.00000000000000     0.00000000000000     0.00000000000000
O     1.88139722425975     1.33034873537961     3.25867558163693