CRYSTAL
# Primitive lattice vectors in Angstrom
PRIMVEC
 4.09673151701396 0.00000000000000 0.00000000000000
 -0.00000000000000 4.09673151701396 0.00000000000000
 0.00000000000000 0.00000000000000 4.09673151701396
# Cartesian coordinates in Angstrom.
PRIMCOORD
 4 1
Hf     0.00000000000000     0.00000000000000     0.00000000000000
O     2.04836575850698     0.00000000000000     0.00000000000000
O     0.00000000000000     2.04836575850698     0.00000000000000
O     0.00000000000000     0.00000000000000     2.04836575850698