CRYSTAL
# Primitive lattice vectors in Angstrom
PRIMVEC
 3.48958808570409 0.00000000000000 2.01471462064217
 1.16319602856803 3.29001519859886 2.01471462064217
 0.00000000000000 0.00000000000000 4.02942924128434
# Cartesian coordinates in Angstrom.
PRIMCOORD
 3 1
Hf     1.16319602856803     0.82250379964971     2.01471462064217
Hf     3.48958808570409     2.46751139894915     6.04414386192651
O     0.00000000000000     0.00000000000000     0.00000000000000