CRYSTAL
# Primitive lattice vectors in Angstrom
PRIMVEC
 5.16094405363532 0.00000000000000 0.00000000000000
 -0.00000000000000 5.16094405363532 0.00000000000000
 0.00000000000000 0.00000000000000 5.16094405363532
# Cartesian coordinates in Angstrom.
PRIMCOORD
 14 1
Hf     0.00000000000000     0.00000000000000     0.00000000000000
Hf     2.58047202681766     2.58047202681766     0.00000000000000
Hf     2.58047202681766     0.00000000000000     2.58047202681766
Hf     0.00000000000000     2.58047202681766     2.58047202681766
O     2.58047202681766     0.00000000000000     0.00000000000000
O     0.00000000000000     2.58047202681766     0.00000000000000
O     0.00000000000000     0.00000000000000     2.58047202681766
O     2.58047202681766     2.58047202681766     2.58047202681766
O     3.87070804022649     3.87070804022649     1.29023601340883
O     3.87070804022649     1.29023601340883     3.87070804022649
O     1.29023601340883     3.87070804022649     3.87070804022649
O     3.87070804022649     1.29023601340883     1.29023601340883
O     1.29023601340883     3.87070804022649     1.29023601340883
O     1.29023601340883     1.29023601340883     3.87070804022649