CRYSTAL
# Primitive lattice vectors in Angstrom
PRIMVEC
 2.77271323032885 0.00000000000000 1.60082672991600
 0.92423774344295 2.61413910326825 1.60082672991600
 0.00000000000000 0.00000000000000 3.20165345983199
# Cartesian coordinates in Angstrom.
PRIMCOORD
 2 1
Hf     0.00000000000000     0.00000000000000     0.00000000000000
O     1.84847548688590     1.30706955163412     3.20165345983199