CRYSTAL
# Primitive lattice vectors in Angstrom
PRIMVEC
 4.98968658417933 0.00000000000000 0.00000000000000
 -0.00000000000000 4.98968658417933 0.00000000000000
 0.00000000000000 0.00000000000000 4.98968658417933
# Cartesian coordinates in Angstrom.
PRIMCOORD
 10 1
Hf     1.24742164604483     1.24742164604483     1.24742164604483
Hf     3.74226493813450     3.74226493813450     1.24742164604483
Hf     3.74226493813450     1.24742164604483     3.74226493813450
Hf     1.24742164604483     3.74226493813450     3.74226493813450
O     2.49484329208967     0.00000000000000     0.00000000000000
O     0.00000000000000     2.49484329208967     0.00000000000000
O     0.00000000000000     0.00000000000000     2.49484329208967
O     2.49484329208967     2.49484329208967     0.00000000000000
O     2.49484329208967     0.00000000000000     2.49484329208967
O     0.00000000000000     2.49484329208967     2.49484329208967