CRYSTAL
# Primitive lattice vectors in Angstrom
PRIMVEC
 3.08872166138835 0.00000000000000 1.78327428265439
 1.02957388712945 2.91207470928731 1.78327428265439
 0.00000000000000 0.00000000000000 3.56654856530878
# Cartesian coordinates in Angstrom.
PRIMCOORD
 3 1
Hf     0.00000000000000     0.00000000000000     0.00000000000000
O     1.02957388712945     0.72801867732183     1.78327428265439
O     3.08872166138835     2.18405603196548     5.34982284796318