CRYSTAL
# Primitive lattice vectors in Angstrom
PRIMVEC
 4.09706661643985 0.00000000000000 0.00000000000000
 -0.00000000000000 4.09706661643985 0.00000000000000
 0.00000000000000 0.00000000000000 4.09706661643985
# Cartesian coordinates in Angstrom.
PRIMCOORD
 4 1
Hg     0.00000000000000     0.00000000000000     0.00000000000000
O     2.04853330821992     0.00000000000000     0.00000000000000
O     0.00000000000000     2.04853330821992     0.00000000000000
O     0.00000000000000     0.00000000000000     2.04853330821992