CRYSTAL
# Primitive lattice vectors in Angstrom
PRIMVEC
 3.24274868687261 0.00000000000000 1.87220182728020
 1.08091622895753 3.05729278156186 1.87220182728020
 0.00000000000000 0.00000000000000 3.74440365456041
# Cartesian coordinates in Angstrom.
PRIMCOORD
 3 1
Hg     0.00000000000000     0.00000000000000     0.00000000000000
O     1.08091622895753     0.76432319539047     1.87220182728020
O     3.24274868687261     2.29296958617140     5.61660548184062