CRYSTAL
# Primitive lattice vectors in Angstrom
PRIMVEC
 5.38736013975698 0.00000000000000 0.00000000000000
 -0.00000000000000 5.38736013975698 0.00000000000000
 0.00000000000000 0.00000000000000 5.38736013975698
# Cartesian coordinates in Angstrom.
PRIMCOORD
 14 1
Hg     0.00000000000000     0.00000000000000     0.00000000000000
Hg     2.69368006987849     2.69368006987849     0.00000000000000
Hg     2.69368006987849     0.00000000000000     2.69368006987849
Hg     0.00000000000000     2.69368006987849     2.69368006987849
O     2.69368006987849     0.00000000000000     0.00000000000000
O     0.00000000000000     2.69368006987849     0.00000000000000
O     0.00000000000000     0.00000000000000     2.69368006987849
O     2.69368006987849     2.69368006987849     2.69368006987849
O     4.04052010481773     4.04052010481773     1.34684003493924
O     4.04052010481773     1.34684003493924     4.04052010481773
O     1.34684003493924     4.04052010481773     4.04052010481773
O     4.04052010481773     1.34684003493924     1.34684003493924
O     1.34684003493924     4.04052010481773     1.34684003493924
O     1.34684003493924     1.34684003493924     4.04052010481773