CRYSTAL
# Primitive lattice vectors in Angstrom
PRIMVEC
 5.24833815371390 0.00000000000000 0.00000000000000
 -0.00000000000000 5.24833815371390 0.00000000000000
 0.00000000000000 0.00000000000000 5.24833815371390
# Cartesian coordinates in Angstrom.
PRIMCOORD
 10 1
Hg     1.31208453842847     1.31208453842847     1.31208453842847
Hg     3.93625361528542     3.93625361528542     1.31208453842847
Hg     3.93625361528542     1.31208453842847     3.93625361528542
Hg     1.31208453842847     3.93625361528542     3.93625361528542
O     2.62416907685695     0.00000000000000     0.00000000000000
O     0.00000000000000     2.62416907685695     0.00000000000000
O     0.00000000000000     0.00000000000000     2.62416907685695
O     2.62416907685695     2.62416907685695     0.00000000000000
O     2.62416907685695     0.00000000000000     2.62416907685695
O     0.00000000000000     2.62416907685695     2.62416907685695