CRYSTAL
# Primitive lattice vectors in Angstrom
PRIMVEC
 3.63235260265289 0.00000000000000 2.09713975293328
 1.21078420088429 3.42461487599528 2.09713975293328
 0.00000000000000 0.00000000000000 4.19427950586657
# Cartesian coordinates in Angstrom.
PRIMCOORD
 3 1
Hg     1.21078420088429     0.85615371899882     2.09713975293328
Hg     3.63235260265289     2.56846115699646     6.29141925879985
O     0.00000000000000     0.00000000000000     0.00000000000000