CRYSTAL
# Primitive lattice vectors in Angstrom
PRIMVEC
 2.95978133207372 0.00000000000000 1.70883054881519
 0.98659377735791 2.79050860098491 1.70883054881519
 0.00000000000000 0.00000000000000 3.41766109763038
# Cartesian coordinates in Angstrom.
PRIMCOORD
 2 1
Hg     0.00000000000000     0.00000000000000     0.00000000000000
O     1.97318755471581     1.39525430049245     3.41766109763038