CRYSTAL
# Primitive lattice vectors in Angstrom
PRIMVEC
 5.20098434366495 0.00000000000000 0.00000000000000
 -0.00000000000000 5.20098434366495 0.00000000000000
 0.00000000000000 0.00000000000000 5.20098434366495
# Cartesian coordinates in Angstrom.
PRIMCOORD
 10 1
Ho     1.30024608591624     1.30024608591624     1.30024608591624
Ho     3.90073825774872     3.90073825774872     1.30024608591624
Ho     3.90073825774872     1.30024608591624     3.90073825774872
Ho     1.30024608591624     3.90073825774872     3.90073825774872
O     2.60049217183248     0.00000000000000     0.00000000000000
O     0.00000000000000     2.60049217183248     0.00000000000000
O     0.00000000000000     0.00000000000000     2.60049217183248
O     2.60049217183248     2.60049217183248     0.00000000000000
O     2.60049217183248     0.00000000000000     2.60049217183248
O     0.00000000000000     2.60049217183248     2.60049217183248