CRYSTAL
# Primitive lattice vectors in Angstrom
PRIMVEC
 3.53937421730278 0.00000000000000 2.04345865712258
 1.17979140576759 3.33695401361550 2.04345865712258
 0.00000000000000 0.00000000000000 4.08691731424516
# Cartesian coordinates in Angstrom.
PRIMCOORD
 3 1
Ho     1.17979140576759     0.83423850340387     2.04345865712258
Ho     3.53937421730278     2.50271551021162     6.13037597136774
O     0.00000000000000     0.00000000000000     0.00000000000000