CRYSTAL
# Primitive lattice vectors in Angstrom
PRIMVEC
 3.18558736144934 0.00000000000000 1.83919972065984
 1.06186245381644 3.00340056712399 1.83919972065984
 0.00000000000000 0.00000000000000 3.67839944131969
# Cartesian coordinates in Angstrom.
PRIMCOORD
 3 1
Ho     0.00000000000000     0.00000000000000     0.00000000000000
O     1.06186245381644     0.75085014178100     1.83919972065984
O     3.18558736144934     2.25255042534299     5.51759916197954