CRYSTAL
# Primitive lattice vectors in Angstrom
PRIMVEC
 5.28391225479048 0.00000000000000 0.00000000000000
 -0.00000000000000 5.28391225479048 0.00000000000000
 0.00000000000000 0.00000000000000 5.28391225479048
# Cartesian coordinates in Angstrom.
PRIMCOORD
 14 1
Ho     0.00000000000000     0.00000000000000     0.00000000000000
Ho     2.64195612739524     2.64195612739524     0.00000000000000
Ho     2.64195612739524     0.00000000000000     2.64195612739524
Ho     0.00000000000000     2.64195612739524     2.64195612739524
O     2.64195612739524     0.00000000000000     0.00000000000000
O     0.00000000000000     2.64195612739524     0.00000000000000
O     0.00000000000000     0.00000000000000     2.64195612739524
O     2.64195612739524     2.64195612739524     2.64195612739524
O     3.96293419109286     3.96293419109286     1.32097806369762
O     3.96293419109286     1.32097806369762     3.96293419109286
O     1.32097806369762     3.96293419109286     3.96293419109286
O     3.96293419109286     1.32097806369762     1.32097806369762
O     1.32097806369762     3.96293419109286     1.32097806369762
O     1.32097806369762     1.32097806369762     3.96293419109286