CRYSTAL
# Primitive lattice vectors in Angstrom
PRIMVEC
 2.89903729645896 0.00000000000000 1.67375996350134
 0.96634576548632 2.73323857498513 1.67375996350134
 0.00000000000000 0.00000000000000 3.34751992700269
# Cartesian coordinates in Angstrom.
PRIMCOORD
 2 1
Ho     0.00000000000000     0.00000000000000     0.00000000000000
O     1.93269153097264     1.36661928749256     3.34751992700269