CRYSTAL
# Primitive lattice vectors in Angstrom
PRIMVEC
 5.42817862434395 0.00000000000000 0.00000000000000
 -0.00000000000000 5.42817862434395 0.00000000000000
 0.00000000000000 0.00000000000000 5.42817862434395
# Cartesian coordinates in Angstrom.
PRIMCOORD
 10 1
I     1.35704465608598     1.35704465608598     1.35704465608598
I     4.07113396825796     4.07113396825796     1.35704465608598
I     4.07113396825796     1.35704465608598     4.07113396825796
I     1.35704465608598     4.07113396825796     4.07113396825796
O     2.71408931217198     0.00000000000000     0.00000000000000
O     0.00000000000000     2.71408931217198     0.00000000000000
O     0.00000000000000     0.00000000000000     2.71408931217198
O     2.71408931217198     2.71408931217198     0.00000000000000
O     2.71408931217198     0.00000000000000     2.71408931217198
O     0.00000000000000     2.71408931217198     2.71408931217198