CRYSTAL
# Primitive lattice vectors in Angstrom
PRIMVEC
 5.37164234987179 0.00000000000000 0.00000000000000
 -0.00000000000000 5.37164234987179 0.00000000000000
 0.00000000000000 0.00000000000000 5.37164234987179
# Cartesian coordinates in Angstrom.
PRIMCOORD
 14 1
I     0.00000000000000     0.00000000000000     0.00000000000000
I     2.68582117493590     2.68582117493590     0.00000000000000
I     2.68582117493590     0.00000000000000     2.68582117493590
I     0.00000000000000     2.68582117493590     2.68582117493590
O     2.68582117493590     0.00000000000000     0.00000000000000
O     0.00000000000000     2.68582117493590     0.00000000000000
O     0.00000000000000     0.00000000000000     2.68582117493590
O     2.68582117493590     2.68582117493590     2.68582117493590
O     4.02873176240384     4.02873176240384     1.34291058746795
O     4.02873176240384     1.34291058746795     4.02873176240384
O     1.34291058746795     4.02873176240384     4.02873176240384
O     4.02873176240384     1.34291058746795     1.34291058746795
O     1.34291058746795     4.02873176240384     1.34291058746795
O     1.34291058746795     1.34291058746795     4.02873176240384