CRYSTAL
# Primitive lattice vectors in Angstrom
PRIMVEC
 3.93810063868204 0.00000000000000 2.27366346383891
 1.31270021289401 3.71287688880952 2.27366346383891
 0.00000000000000 0.00000000000000 4.54732692767783
# Cartesian coordinates in Angstrom.
PRIMCOORD
 3 1
I     1.31270021289401     0.92821922220238     2.27366346383891
I     3.93810063868204     2.78465766660714     6.82099039151674
O     0.00000000000000     0.00000000000000     0.00000000000000