CRYSTAL
# Primitive lattice vectors in Angstrom
PRIMVEC
 3.20981361013054 0.00000000000000 1.85318675185739
 1.06993787004351 3.02624129342424 1.85318675185739
 0.00000000000000 0.00000000000000 3.70637350371478
# Cartesian coordinates in Angstrom.
PRIMCOORD
 2 1
I     0.00000000000000     0.00000000000000     0.00000000000000
O     2.13987574008703     1.51312064671211     3.70637350371478