CRYSTAL
# Primitive lattice vectors in Angstrom
PRIMVEC
 3.31500107096455 0.00000000000000 1.91391676068528
 1.10500035698818 3.12541298255961 1.91391676068528
 0.00000000000000 0.00000000000000 3.82783352137056
# Cartesian coordinates in Angstrom.
PRIMCOORD
 3 1
I     0.00000000000000     0.00000000000000     0.00000000000000
O     1.10500035698818     0.78135324563990     1.91391676068528
O     3.31500107096455     2.34405973691970     5.74175028205585