CRYSTAL
# Primitive lattice vectors in Angstrom
PRIMVEC
 3.89556476277813 0.00000000000000 0.00000000000000
 -0.00000000000000 3.89556476277813 0.00000000000000
 0.00000000000000 0.00000000000000 3.89556476277813
# Cartesian coordinates in Angstrom.
PRIMCOORD
 4 1
I     0.00000000000000     0.00000000000000     0.00000000000000
O     1.94778238138906     0.00000000000000     0.00000000000000
O     0.00000000000000     1.94778238138906     0.00000000000000
O     0.00000000000000     0.00000000000000     1.94778238138906