CRYSTAL
# Primitive lattice vectors in Angstrom
PRIMVEC
 4.14620609499084 0.00000000000000 0.00000000000000
 -0.00000000000000 4.14620609499084 0.00000000000000
 0.00000000000000 0.00000000000000 4.14620609499084
# Cartesian coordinates in Angstrom.
PRIMCOORD
 4 1
In     0.00000000000000     0.00000000000000     0.00000000000000
O     2.07310304749542     0.00000000000000     0.00000000000000
O     0.00000000000000     2.07310304749542     0.00000000000000
O     0.00000000000000     0.00000000000000     2.07310304749542