CRYSTAL
# Primitive lattice vectors in Angstrom
PRIMVEC
 5.30720426097016 0.00000000000000 0.00000000000000
 -0.00000000000000 5.30720426097016 0.00000000000000
 0.00000000000000 0.00000000000000 5.30720426097016
# Cartesian coordinates in Angstrom.
PRIMCOORD
 14 1
In     0.00000000000000     0.00000000000000     0.00000000000000
In     2.65360213048508     2.65360213048508     0.00000000000000
In     2.65360213048508     0.00000000000000     2.65360213048508
In     0.00000000000000     2.65360213048508     2.65360213048508
O     2.65360213048508     0.00000000000000     0.00000000000000
O     0.00000000000000     2.65360213048508     0.00000000000000
O     0.00000000000000     0.00000000000000     2.65360213048508
O     2.65360213048508     2.65360213048508     2.65360213048508
O     3.98040319572762     3.98040319572762     1.32680106524254
O     3.98040319572762     1.32680106524254     3.98040319572762
O     1.32680106524254     3.98040319572762     3.98040319572762
O     3.98040319572762     1.32680106524254     1.32680106524254
O     1.32680106524254     3.98040319572762     1.32680106524254
O     1.32680106524254     1.32680106524254     3.98040319572762