CRYSTAL
# Primitive lattice vectors in Angstrom
PRIMVEC
 2.98805076032289 0.00000000000000 1.72515191082468
 0.99601692010763 2.81716127353858 1.72515191082468
 0.00000000000000 0.00000000000000 3.45030382164937
# Cartesian coordinates in Angstrom.
PRIMCOORD
 2 1
In     0.00000000000000     0.00000000000000     0.00000000000000
O     1.99203384021526     1.40858063676929     3.45030382164937