CRYSTAL
# Primitive lattice vectors in Angstrom
PRIMVEC
 3.83530860455758 0.00000000000000 2.21431645526661
 1.27843620151919 3.61596362963437 2.21431645526661
 0.00000000000000 0.00000000000000 4.42863291053322
# Cartesian coordinates in Angstrom.
PRIMCOORD
 3 1
In     1.27843620151919     0.90399090740859     2.21431645526661
In     3.83530860455758     2.71197272222578     6.64294936579982
O     0.00000000000000     0.00000000000000     0.00000000000000