CRYSTAL
# Primitive lattice vectors in Angstrom
PRIMVEC
 5.12931276251143 0.00000000000000 0.00000000000000
 -0.00000000000000 5.12931276251143 0.00000000000000
 0.00000000000000 0.00000000000000 5.12931276251143
# Cartesian coordinates in Angstrom.
PRIMCOORD
 10 1
In     1.28232819062786     1.28232819062786     1.28232819062786
In     3.84698457188358     3.84698457188358     1.28232819062786
In     3.84698457188358     1.28232819062786     3.84698457188358
In     1.28232819062786     3.84698457188358     3.84698457188358
O     2.56465638125572     0.00000000000000     0.00000000000000
O     0.00000000000000     2.56465638125572     0.00000000000000
O     0.00000000000000     0.00000000000000     2.56465638125572
O     2.56465638125572     2.56465638125572     0.00000000000000
O     2.56465638125572     0.00000000000000     2.56465638125572
O     0.00000000000000     2.56465638125572     2.56465638125572