CRYSTAL
# Primitive lattice vectors in Angstrom
PRIMVEC
 3.17990203875334 0.00000000000000 1.83591729807088
 1.05996734625111 2.99804039348189 1.83591729807088
 0.00000000000000 0.00000000000000 3.67183459614176
# Cartesian coordinates in Angstrom.
PRIMCOORD
 3 1
In     0.00000000000000     0.00000000000000     0.00000000000000
O     1.05996734625111     0.74951009837047     1.83591729807088
O     3.17990203875334     2.24853029511142     5.50775189421265