CRYSTAL
# Primitive lattice vectors in Angstrom
PRIMVEC
 3.73952433032812 0.00000000000000 0.00000000000000
 -0.00000000000000 3.73952433032812 0.00000000000000
 0.00000000000000 0.00000000000000 3.73952433032812
# Cartesian coordinates in Angstrom.
PRIMCOORD
 4 1
Ir     0.00000000000000     0.00000000000000     0.00000000000000
O     1.86976216516406     0.00000000000000     0.00000000000000
O     0.00000000000000     1.86976216516406     0.00000000000000
O     0.00000000000000     0.00000000000000     1.86976216516406