CRYSTAL
# Primitive lattice vectors in Angstrom
PRIMVEC
 3.28913373662309 0.00000000000000 1.89898224824002
 1.09637791220769 3.10102502586084 1.89898224824002
 0.00000000000000 0.00000000000000 3.79796449648004
# Cartesian coordinates in Angstrom.
PRIMCOORD
 3 1
Ir     1.09637791220769     0.77525625646521     1.89898224824002
Ir     3.28913373662309     2.32576876939564     5.69694674472006
O     0.00000000000000     0.00000000000000     0.00000000000000