CRYSTAL
# Primitive lattice vectors in Angstrom
PRIMVEC
 5.00480865973145 0.00000000000000 0.00000000000000
 -0.00000000000000 5.00480865973145 0.00000000000000
 0.00000000000000 0.00000000000000 5.00480865973145
# Cartesian coordinates in Angstrom.
PRIMCOORD
 14 1
Ir     0.00000000000000     0.00000000000000     0.00000000000000
Ir     2.50240432986572     2.50240432986572     0.00000000000000
Ir     2.50240432986572     0.00000000000000     2.50240432986572
Ir     0.00000000000000     2.50240432986572     2.50240432986572
O     2.50240432986572     0.00000000000000     0.00000000000000
O     0.00000000000000     2.50240432986572     0.00000000000000
O     0.00000000000000     0.00000000000000     2.50240432986572
O     2.50240432986572     2.50240432986572     2.50240432986572
O     3.75360649479859     3.75360649479859     1.25120216493286
O     3.75360649479859     1.25120216493286     3.75360649479859
O     1.25120216493286     3.75360649479859     3.75360649479859
O     3.75360649479859     1.25120216493286     1.25120216493286
O     1.25120216493286     3.75360649479859     1.25120216493286
O     1.25120216493286     1.25120216493286     3.75360649479859