CRYSTAL
# Primitive lattice vectors in Angstrom
PRIMVEC
 4.74620357740827 0.00000000000000 0.00000000000000
 -0.00000000000000 4.74620357740827 0.00000000000000
 0.00000000000000 0.00000000000000 4.74620357740827
# Cartesian coordinates in Angstrom.
PRIMCOORD
 10 1
Ir     1.18655089435206     1.18655089435206     1.18655089435206
Ir     3.55965268305620     3.55965268305620     1.18655089435206
Ir     3.55965268305620     1.18655089435206     3.55965268305620
Ir     1.18655089435206     3.55965268305620     3.55965268305620
O     2.37310178870414     0.00000000000000     0.00000000000000
O     0.00000000000000     2.37310178870414     0.00000000000000
O     0.00000000000000     0.00000000000000     2.37310178870414
O     2.37310178870414     2.37310178870414     0.00000000000000
O     2.37310178870414     0.00000000000000     2.37310178870414
O     0.00000000000000     2.37310178870414     2.37310178870414