CRYSTAL
# Primitive lattice vectors in Angstrom
PRIMVEC
 2.99840744411564 0.00000000000000 1.73113134500034
 0.99946914803854 2.82692564865919 1.73113134500034
 0.00000000000000 0.00000000000000 3.46226269000068
# Cartesian coordinates in Angstrom.
PRIMCOORD
 3 1
Ir     0.00000000000000     0.00000000000000     0.00000000000000
O     0.99946914803854     0.70673141216480     1.73113134500034
O     2.99840744411564     2.12019423649439     5.19339403500103