CRYSTAL
# Primitive lattice vectors in Angstrom
PRIMVEC
 2.73843291109301 0.00000000000000 1.58103497837728
 0.91281097036434 2.58181930834438 1.58103497837728
 0.00000000000000 0.00000000000000 3.16206995675455
# Cartesian coordinates in Angstrom.
PRIMCOORD
 2 1
Ir     0.00000000000000     0.00000000000000     0.00000000000000
O     1.82562194072867     1.29090965417218     3.16206995675455