CRYSTAL
# Primitive lattice vectors in Angstrom
PRIMVEC
 5.94236385475796 0.00000000000000 0.00000000000000
 -0.00000000000000 5.94236385475796 0.00000000000000
 0.00000000000000 0.00000000000000 5.94236385475796
# Cartesian coordinates in Angstrom.
PRIMCOORD
 10 1
K     1.48559096368949     1.48559096368949     1.48559096368949
K     4.45677289106847     4.45677289106847     1.48559096368949
K     4.45677289106847     1.48559096368949     4.45677289106847
K     1.48559096368949     4.45677289106847     4.45677289106847
O     2.97118192737898     0.00000000000000     0.00000000000000
O     0.00000000000000     2.97118192737898     0.00000000000000
O     0.00000000000000     0.00000000000000     2.97118192737898
O     2.97118192737898     2.97118192737898     0.00000000000000
O     2.97118192737898     0.00000000000000     2.97118192737898
O     0.00000000000000     2.97118192737898     2.97118192737898