CRYSTAL
# Primitive lattice vectors in Angstrom
PRIMVEC
 3.88000305937486 0.00000000000000 2.24012081078665
 1.29333435312495 3.65810196574469 2.24012081078665
 0.00000000000000 0.00000000000000 4.48024162157330
# Cartesian coordinates in Angstrom.
PRIMCOORD
 3 1
K     1.29333435312495     0.91452549143617     2.24012081078665
K     3.88000305937486     2.74357647430852     6.72036243235995
O     0.00000000000000     0.00000000000000     0.00000000000000