CRYSTAL
# Primitive lattice vectors in Angstrom
PRIMVEC
 5.66861227292268 0.00000000000000 0.00000000000000
 -0.00000000000000 5.66861227292268 0.00000000000000
 0.00000000000000 0.00000000000000 5.66861227292268
# Cartesian coordinates in Angstrom.
PRIMCOORD
 14 1
K     0.00000000000000     0.00000000000000     0.00000000000000
K     2.83430613646134     2.83430613646134     0.00000000000000
K     2.83430613646134     0.00000000000000     2.83430613646134
K     0.00000000000000     2.83430613646134     2.83430613646134
O     2.83430613646134     0.00000000000000     0.00000000000000
O     0.00000000000000     2.83430613646134     0.00000000000000
O     0.00000000000000     0.00000000000000     2.83430613646134
O     2.83430613646134     2.83430613646134     2.83430613646134
O     4.25145920469201     4.25145920469201     1.41715306823067
O     4.25145920469201     1.41715306823067     4.25145920469201
O     1.41715306823067     4.25145920469201     4.25145920469201
O     4.25145920469201     1.41715306823067     1.41715306823067
O     1.41715306823067     4.25145920469201     1.41715306823067
O     1.41715306823067     1.41715306823067     4.25145920469201