CRYSTAL
# Primitive lattice vectors in Angstrom
PRIMVEC
 4.88887674818214 0.00000000000000 0.00000000000000
 -0.00000000000000 4.88887674818214 0.00000000000000
 0.00000000000000 0.00000000000000 4.88887674818214
# Cartesian coordinates in Angstrom.
PRIMCOORD
 4 1
K     0.00000000000000     0.00000000000000     0.00000000000000
O     2.44443837409106     0.00000000000000     0.00000000000000
O     0.00000000000000     2.44443837409106     0.00000000000000
O     0.00000000000000     0.00000000000000     2.44443837409106