CRYSTAL
# Primitive lattice vectors in Angstrom
PRIMVEC
 3.31010476446095 0.00000000000000 1.91108987680739
 1.10336825482032 3.12079670051765 1.91108987680739
 0.00000000000000 0.00000000000000 3.82217975361478
# Cartesian coordinates in Angstrom.
PRIMCOORD
 2 1
K     0.00000000000000     0.00000000000000     0.00000000000000
O     2.20673650964064     1.56039835025882     3.82217975361478