CRYSTAL
# Primitive lattice vectors in Angstrom
PRIMVEC
 3.65424015716156 0.00000000000000 2.10977653842077
 1.21808005238718 3.44525066028418 2.10977653842077
 0.00000000000000 0.00000000000000 4.21955307684153
# Cartesian coordinates in Angstrom.
PRIMCOORD
 3 1
K     0.00000000000000     0.00000000000000     0.00000000000000
O     1.21808005238718     0.86131266507105     2.10977653842077
O     3.65424015716156     2.58393799521314     6.32932961526231