CRYSTAL
# Primitive lattice vectors in Angstrom
PRIMVEC
 3.20252275893080 0.00000000000000 1.84897737695460
 1.06750758631027 3.01936741299229 1.84897737695460
 0.00000000000000 0.00000000000000 3.69795475390919
# Cartesian coordinates in Angstrom.
PRIMCOORD
 2 1
Kr     0.00000000000000     0.00000000000000     0.00000000000000
O     2.13501517262053     1.50968370649614     3.69795475390919