CRYSTAL
# Primitive lattice vectors in Angstrom
PRIMVEC
 5.61389783269950 0.00000000000000 0.00000000000000
 -0.00000000000000 5.61389783269950 0.00000000000000
 0.00000000000000 0.00000000000000 5.61389783269950
# Cartesian coordinates in Angstrom.
PRIMCOORD
 10 1
Kr     1.40347445817487     1.40347445817487     1.40347445817487
Kr     4.21042337452463     4.21042337452463     1.40347445817487
Kr     4.21042337452463     1.40347445817487     4.21042337452463
Kr     1.40347445817487     4.21042337452463     4.21042337452463
O     2.80694891634975     0.00000000000000     0.00000000000000
O     0.00000000000000     2.80694891634975     0.00000000000000
O     0.00000000000000     0.00000000000000     2.80694891634975
O     2.80694891634975     2.80694891634975     0.00000000000000
O     2.80694891634975     0.00000000000000     2.80694891634975
O     0.00000000000000     2.80694891634975     2.80694891634975