CRYSTAL
# Primitive lattice vectors in Angstrom
PRIMVEC
 3.41076970110885 0.00000000000000 1.96920880507901
 1.13692323370295 3.21570451295958 1.96920880507901
 0.00000000000000 0.00000000000000 3.93841761015803
# Cartesian coordinates in Angstrom.
PRIMCOORD
 3 1
Kr     0.00000000000000     0.00000000000000     0.00000000000000
O     1.13692323370295     0.80392612823990     1.96920880507901
O     3.41076970110885     2.41177838471969     5.90762641523705