CRYSTAL
# Primitive lattice vectors in Angstrom
PRIMVEC
 4.44775766888076 0.00000000000000 2.56791408741853
 1.48258588962692 4.19338614498674 2.56791408741853
 0.00000000000000 0.00000000000000 5.13582817483706
# Cartesian coordinates in Angstrom.
PRIMCOORD
 3 1
Kr     1.48258588962692     1.04834653624668     2.56791408741853
Kr     4.44775766888076     3.14503960874006     7.70374226225559
O     0.00000000000000     0.00000000000000     0.00000000000000