CRYSTAL
# Primitive lattice vectors in Angstrom
PRIMVEC
 3.98803189078159 0.00000000000000 0.00000000000000
 -0.00000000000000 3.98803189078159 0.00000000000000
 0.00000000000000 0.00000000000000 3.98803189078159
# Cartesian coordinates in Angstrom.
PRIMCOORD
 4 1
Kr     0.00000000000000     0.00000000000000     0.00000000000000
O     1.99401594539079     0.00000000000000     0.00000000000000
O     0.00000000000000     1.99401594539079     0.00000000000000
O     0.00000000000000     0.00000000000000     1.99401594539079