CRYSTAL
# Primitive lattice vectors in Angstrom
PRIMVEC
 5.58692597888980 0.00000000000000 0.00000000000000
 -0.00000000000000 5.58692597888980 0.00000000000000
 0.00000000000000 0.00000000000000 5.58692597888980
# Cartesian coordinates in Angstrom.
PRIMCOORD
 14 1
Kr     0.00000000000000     0.00000000000000     0.00000000000000
Kr     2.79346298944490     2.79346298944490     0.00000000000000
Kr     2.79346298944490     0.00000000000000     2.79346298944490
Kr     0.00000000000000     2.79346298944490     2.79346298944490
O     2.79346298944490     0.00000000000000     0.00000000000000
O     0.00000000000000     2.79346298944490     0.00000000000000
O     0.00000000000000     0.00000000000000     2.79346298944490
O     2.79346298944490     2.79346298944490     2.79346298944490
O     4.19019448416735     4.19019448416735     1.39673149472245
O     4.19019448416735     1.39673149472245     4.19019448416735
O     1.39673149472245     4.19019448416735     4.19019448416735
O     4.19019448416735     1.39673149472245     1.39673149472245
O     1.39673149472245     4.19019448416735     1.39673149472245
O     1.39673149472245     1.39673149472245     4.19019448416735