CRYSTAL
# Primitive lattice vectors in Angstrom
PRIMVEC
 3.83809080008306 0.00000000000000 2.21592275660219
 1.27936360002768 3.61858670873125 2.21592275660219
 0.00000000000000 0.00000000000000 4.43184551320437
# Cartesian coordinates in Angstrom.
PRIMCOORD
 3 1
La     1.27936360002769     0.90464667718281     2.21592275660219
La     3.83809080008306     2.71394003154844     6.64776826980656
O     0.00000000000000     0.00000000000000     0.00000000000000