CRYSTAL
# Primitive lattice vectors in Angstrom
PRIMVEC
 5.60340620251741 0.00000000000000 0.00000000000000
 -0.00000000000000 5.60340620251741 0.00000000000000
 0.00000000000000 0.00000000000000 5.60340620251741
# Cartesian coordinates in Angstrom.
PRIMCOORD
 10 1
La     1.40085155062935     1.40085155062935     1.40085155062935
La     4.20255465188806     4.20255465188806     1.40085155062935
La     4.20255465188806     1.40085155062935     4.20255465188806
La     1.40085155062935     4.20255465188806     4.20255465188806
O     2.80170310125871     0.00000000000000     0.00000000000000
O     0.00000000000000     2.80170310125871     0.00000000000000
O     0.00000000000000     0.00000000000000     2.80170310125871
O     2.80170310125871     2.80170310125871     0.00000000000000
O     2.80170310125871     0.00000000000000     2.80170310125871
O     0.00000000000000     2.80170310125871     2.80170310125871