CRYSTAL
# Primitive lattice vectors in Angstrom
PRIMVEC
 4.37092948316213 0.00000000000000 0.00000000000000
 -0.00000000000000 4.37092948316213 0.00000000000000
 0.00000000000000 0.00000000000000 4.37092948316213
# Cartesian coordinates in Angstrom.
PRIMCOORD
 4 1
La     0.00000000000000     0.00000000000000     0.00000000000000
O     2.18546474158106     0.00000000000000     0.00000000000000
O     0.00000000000000     2.18546474158106     0.00000000000000
O     0.00000000000000     0.00000000000000     2.18546474158106