CRYSTAL
# Primitive lattice vectors in Angstrom
PRIMVEC
 3.47842674697361 0.00000000000000 2.00827061872160
 1.15947558232453 3.27949218752760 2.00827061872160
 0.00000000000000 0.00000000000000 4.01654123744321
# Cartesian coordinates in Angstrom.
PRIMCOORD
 3 1
La     0.00000000000000     0.00000000000000     0.00000000000000
O     1.15947558232453     0.81987304688190     2.00827061872160
O     3.47842674697361     2.45961914064570     6.02481185616482