CRYSTAL
# Primitive lattice vectors in Angstrom
PRIMVEC
 5.65616170367495 0.00000000000000 0.00000000000000
 -0.00000000000000 5.65616170367495 0.00000000000000
 0.00000000000000 0.00000000000000 5.65616170367495
# Cartesian coordinates in Angstrom.
PRIMCOORD
 14 1
La     0.00000000000000     0.00000000000000     0.00000000000000
La     2.82808085183747     2.82808085183747     0.00000000000000
La     2.82808085183747     0.00000000000000     2.82808085183747
La     0.00000000000000     2.82808085183747     2.82808085183747
O     2.82808085183747     0.00000000000000     0.00000000000000
O     0.00000000000000     2.82808085183747     0.00000000000000
O     0.00000000000000     0.00000000000000     2.82808085183747
O     2.82808085183747     2.82808085183747     2.82808085183747
O     4.24212127775621     4.24212127775621     1.41404042591874
O     4.24212127775621     1.41404042591874     4.24212127775621
O     1.41404042591874     4.24212127775621     4.24212127775621
O     4.24212127775621     1.41404042591874     1.41404042591874
O     1.41404042591874     4.24212127775621     1.41404042591874
O     1.41404042591874     1.41404042591874     4.24212127775621