CRYSTAL
# Primitive lattice vectors in Angstrom
PRIMVEC
 3.12016576424424 0.00000000000000 1.80142854390266
 1.04005525474808 2.94172049376427 1.80142854390266
 0.00000000000000 0.00000000000000 3.60285708780532
# Cartesian coordinates in Angstrom.
PRIMCOORD
 2 1
La     0.00000000000000     0.00000000000000     0.00000000000000
O     2.08011050949616     1.47086024688213     3.60285708780532