CRYSTAL
# Primitive lattice vectors in Angstrom
PRIMVEC
 2.78634314397460 0.00000000000000 1.60869596422840
 0.92878104799153 2.62698950908945 1.60869596422840
 0.00000000000000 0.00000000000000 3.21739192845680
# Cartesian coordinates in Angstrom.
PRIMCOORD
 3 1
Li     0.00000000000000     0.00000000000000     0.00000000000000
O     0.92878104799153     0.65674737727236     1.60869596422840
O     2.78634314397460     1.97024213181708     4.82608789268521