CRYSTAL
# Primitive lattice vectors in Angstrom
PRIMVEC
 3.50511254526540 0.00000000000000 0.00000000000000
 -0.00000000000000 3.50511254526540 0.00000000000000
 0.00000000000000 0.00000000000000 3.50511254526540
# Cartesian coordinates in Angstrom.
PRIMCOORD
 4 1
Li     0.00000000000000     0.00000000000000     0.00000000000000
O     1.75255627263270     0.00000000000000     0.00000000000000
O     0.00000000000000     1.75255627263270     0.00000000000000
O     0.00000000000000     0.00000000000000     1.75255627263270