CRYSTAL
# Primitive lattice vectors in Angstrom
PRIMVEC
 2.44786009460880 0.00000000000000 1.41327268456093
 0.81595336486960 2.30786462972511 1.41327268456093
 0.00000000000000 0.00000000000000 2.82654536912187
# Cartesian coordinates in Angstrom.
PRIMCOORD
 2 1
Li     0.00000000000000     0.00000000000000     0.00000000000000
O     1.63190672973920     1.15393231486255     2.82654536912187