CRYSTAL
# Primitive lattice vectors in Angstrom
PRIMVEC
 4.89611462189339 0.00000000000000 0.00000000000000
 -0.00000000000000 4.89611462189339 0.00000000000000
 0.00000000000000 0.00000000000000 4.89611462189339
# Cartesian coordinates in Angstrom.
PRIMCOORD
 14 1
Li     0.00000000000000     0.00000000000000     0.00000000000000
Li     2.44805731094670     2.44805731094670     0.00000000000000
Li     2.44805731094670     0.00000000000000     2.44805731094670
Li     0.00000000000000     2.44805731094670     2.44805731094670
O     2.44805731094670     0.00000000000000     0.00000000000000
O     0.00000000000000     2.44805731094670     0.00000000000000
O     0.00000000000000     0.00000000000000     2.44805731094670
O     2.44805731094670     2.44805731094670     2.44805731094670
O     3.67208596642004     3.67208596642004     1.22402865547335
O     3.67208596642004     1.22402865547335     3.67208596642004
O     1.22402865547335     3.67208596642004     3.67208596642004
O     3.67208596642004     1.22402865547335     1.22402865547335
O     1.22402865547335     3.67208596642004     1.22402865547335
O     1.22402865547335     1.22402865547335     3.67208596642004