CRYSTAL
# Primitive lattice vectors in Angstrom
PRIMVEC
 4.39664270787795 0.00000000000000 0.00000000000000
 -0.00000000000000 4.39664270787795 0.00000000000000
 0.00000000000000 0.00000000000000 4.39664270787795
# Cartesian coordinates in Angstrom.
PRIMCOORD
 10 1
Li     1.09916067696949     1.09916067696949     1.09916067696949
Li     3.29748203090846     3.29748203090846     1.09916067696949
Li     3.29748203090846     1.09916067696949     3.29748203090846
Li     1.09916067696949     3.29748203090846     3.29748203090846
O     2.19832135393898     0.00000000000000     0.00000000000000
O     0.00000000000000     2.19832135393898     0.00000000000000
O     0.00000000000000     0.00000000000000     2.19832135393898
O     2.19832135393898     2.19832135393898     0.00000000000000
O     2.19832135393898     0.00000000000000     2.19832135393898
O     0.00000000000000     2.19832135393898     2.19832135393898