CRYSTAL
# Primitive lattice vectors in Angstrom
PRIMVEC
 2.80160876785529 0.00000000000000 1.61750957628527
 0.93386958928509 2.64138207730955 1.61750957628527
 0.00000000000000 0.00000000000000 3.23501915257053
# Cartesian coordinates in Angstrom.
PRIMCOORD
 3 1
Li     0.93386958928509     0.66034551932739     1.61750957628527
Li     2.80160876785529     1.98103655798216     4.85252872885580
O     0.00000000000000     0.00000000000000     0.00000000000000