CRYSTAL
# Primitive lattice vectors in Angstrom
PRIMVEC
 3.75387843208562 0.00000000000000 2.16730272326977
 1.25129281069520 3.53919052677022 2.16730272326977
 0.00000000000000 0.00000000000000 4.33460544653953
# Cartesian coordinates in Angstrom.
PRIMCOORD
 3 1
Lr     1.25129281069520     0.88479763169255     2.16730272326977
Lr     3.75387843208562     2.65439289507767     6.50190816980930
O     0.00000000000000     0.00000000000000     0.00000000000000