CRYSTAL
# Primitive lattice vectors in Angstrom
PRIMVEC
 3.28555463163648 0.00000000000000 1.89691585101254
 1.09518487721216 3.09765061331871 1.89691585101254
 0.00000000000000 0.00000000000000 3.79383170202509
# Cartesian coordinates in Angstrom.
PRIMCOORD
 3 1
Lr     0.00000000000000     0.00000000000000     0.00000000000000
O     1.09518487721216     0.77441265332968     1.89691585101254
O     3.28555463163648     2.32323795998903     5.69074755303764