CRYSTAL
# Primitive lattice vectors in Angstrom
PRIMVEC
 5.42084578983189 0.00000000000000 0.00000000000000
 -0.00000000000000 5.42084578983189 0.00000000000000
 0.00000000000000 0.00000000000000 5.42084578983189
# Cartesian coordinates in Angstrom.
PRIMCOORD
 14 1
Lr     0.00000000000000     0.00000000000000     0.00000000000000
Lr     2.71042289491594     2.71042289491594     0.00000000000000
Lr     2.71042289491594     0.00000000000000     2.71042289491594
Lr     0.00000000000000     2.71042289491594     2.71042289491594
O     2.71042289491594     0.00000000000000     0.00000000000000
O     0.00000000000000     2.71042289491594     0.00000000000000
O     0.00000000000000     0.00000000000000     2.71042289491594
O     2.71042289491594     2.71042289491594     2.71042289491594
O     4.06563434237392     4.06563434237392     1.35521144745797
O     4.06563434237392     1.35521144745797     4.06563434237392
O     1.35521144745797     4.06563434237392     4.06563434237392
O     4.06563434237392     1.35521144745797     1.35521144745797
O     1.35521144745797     4.06563434237392     1.35521144745797
O     1.35521144745797     1.35521144745797     4.06563434237392