CRYSTAL
# Primitive lattice vectors in Angstrom
PRIMVEC
 5.31769510837482 0.00000000000000 0.00000000000000
 -0.00000000000000 5.31769510837482 0.00000000000000
 0.00000000000000 0.00000000000000 5.31769510837482
# Cartesian coordinates in Angstrom.
PRIMCOORD
 10 1
Lr     1.32942377709370     1.32942377709370     1.32942377709370
Lr     3.98827133128112     3.98827133128112     1.32942377709370
Lr     3.98827133128112     1.32942377709370     3.98827133128112
Lr     1.32942377709370     3.98827133128112     3.98827133128112
O     2.65884755418742     0.00000000000000     0.00000000000000
O     0.00000000000000     2.65884755418742     0.00000000000000
O     0.00000000000000     0.00000000000000     2.65884755418742
O     2.65884755418742     2.65884755418742     0.00000000000000
O     2.65884755418742     0.00000000000000     2.65884755418742
O     0.00000000000000     2.65884755418742     2.65884755418742