CRYSTAL
# Primitive lattice vectors in Angstrom
PRIMVEC
 4.29381055537954 0.00000000000000 0.00000000000000
 -0.00000000000000 4.29381055537954 0.00000000000000
 0.00000000000000 0.00000000000000 4.29381055537954
# Cartesian coordinates in Angstrom.
PRIMCOORD
 4 1
Lr     0.00000000000000     0.00000000000000     0.00000000000000
O     2.14690527768976     0.00000000000000     0.00000000000000
O     0.00000000000000     2.14690527768976     0.00000000000000
O     0.00000000000000     0.00000000000000     2.14690527768976