CRYSTAL
# Primitive lattice vectors in Angstrom
PRIMVEC
 2.94993226566189 0.00000000000000 1.70314418767105
 0.98331075522063 2.78122281212069 1.70314418767105
 0.00000000000000 0.00000000000000 3.40628837534211
# Cartesian coordinates in Angstrom.
PRIMCOORD
 2 1
Lr     0.00000000000000     0.00000000000000     0.00000000000000
O     1.96662151044126     1.39061140606034     3.40628837534211