CRYSTAL
# Primitive lattice vectors in Angstrom
PRIMVEC
 3.59343713755702 0.00000000000000 2.07467189868455
 1.19781237918567 3.38792502364553 2.07467189868455
 0.00000000000000 0.00000000000000 4.14934379736909
# Cartesian coordinates in Angstrom.
PRIMCOORD
 3 1
Lu     1.19781237918567     0.84698125591138     2.07467189868455
Lu     3.59343713755702     2.54094376773415     6.22401569605364
O     0.00000000000000     0.00000000000000     0.00000000000000