CRYSTAL
# Primitive lattice vectors in Angstrom
PRIMVEC
 4.20267500028293 0.00000000000000 0.00000000000000
 -0.00000000000000 4.20267500028293 0.00000000000000
 0.00000000000000 0.00000000000000 4.20267500028293
# Cartesian coordinates in Angstrom.
PRIMCOORD
 4 1
Lu     0.00000000000000     0.00000000000000     0.00000000000000
O     2.10133750014146     0.00000000000000     0.00000000000000
O     0.00000000000000     2.10133750014146     0.00000000000000
O     0.00000000000000     0.00000000000000     2.10133750014146