CRYSTAL
# Primitive lattice vectors in Angstrom
PRIMVEC
 5.31897679470700 0.00000000000000 0.00000000000000
 -0.00000000000000 5.31897679470700 0.00000000000000
 0.00000000000000 0.00000000000000 5.31897679470700
# Cartesian coordinates in Angstrom.
PRIMCOORD
 14 1
Lu     0.00000000000000     0.00000000000000     0.00000000000000
Lu     2.65948839735350     2.65948839735350     0.00000000000000
Lu     2.65948839735350     0.00000000000000     2.65948839735350
Lu     0.00000000000000     2.65948839735350     2.65948839735350
O     2.65948839735350     0.00000000000000     0.00000000000000
O     0.00000000000000     2.65948839735350     0.00000000000000
O     0.00000000000000     0.00000000000000     2.65948839735350
O     2.65948839735350     2.65948839735350     2.65948839735350
O     3.98923259603025     3.98923259603025     1.32974419867675
O     3.98923259603025     1.32974419867675     3.98923259603025
O     1.32974419867675     3.98923259603025     3.98923259603025
O     3.98923259603025     1.32974419867675     1.32974419867675
O     1.32974419867675     3.98923259603025     1.32974419867675
O     1.32974419867675     1.32974419867675     3.98923259603025