CRYSTAL
# Primitive lattice vectors in Angstrom
PRIMVEC
 5.17829084052060 0.00000000000000 0.00000000000000
 -0.00000000000000 5.17829084052060 0.00000000000000
 0.00000000000000 0.00000000000000 5.17829084052060
# Cartesian coordinates in Angstrom.
PRIMCOORD
 10 1
Lu     1.29457271013015     1.29457271013015     1.29457271013015
Lu     3.88371813039046     3.88371813039046     1.29457271013015
Lu     3.88371813039046     1.29457271013015     3.88371813039046
Lu     1.29457271013015     3.88371813039046     3.88371813039046
O     2.58914542026031     0.00000000000000     0.00000000000000
O     0.00000000000000     2.58914542026031     0.00000000000000
O     0.00000000000000     0.00000000000000     2.58914542026031
O     2.58914542026031     2.58914542026031     0.00000000000000
O     2.58914542026031     0.00000000000000     2.58914542026031
O     0.00000000000000     2.58914542026031     2.58914542026031