CRYSTAL
# Primitive lattice vectors in Angstrom
PRIMVEC
 2.85170516219779 0.00000000000000 1.64643274304434
 0.95056838739926 2.68861341084632 1.64643274304434
 0.00000000000000 0.00000000000000 3.29286548608868
# Cartesian coordinates in Angstrom.
PRIMCOORD
 2 1
Lu     0.00000000000000     0.00000000000000     0.00000000000000
O     1.90113677479853     1.34430670542316     3.29286548608868