CRYSTAL
# Primitive lattice vectors in Angstrom
PRIMVEC
 3.19912700644393 0.00000000000000 1.84701683834220
 1.06637566881464 3.01616586684470 1.84701683834220
 0.00000000000000 0.00000000000000 3.69403367668440
# Cartesian coordinates in Angstrom.
PRIMCOORD
 3 1
Lu     0.00000000000000     0.00000000000000     0.00000000000000
O     1.06637566881464     0.75404146671117     1.84701683834220
O     3.19912700644393     2.26212440013352     5.54105051502661