CRYSTAL
# Primitive lattice vectors in Angstrom
PRIMVEC
 4.13112261582544 0.00000000000000 0.00000000000000
 -0.00000000000000 4.13112261582544 0.00000000000000
 0.00000000000000 0.00000000000000 4.13112261582544
# Cartesian coordinates in Angstrom.
PRIMCOORD
 4 1
Md     0.00000000000000     0.00000000000000     0.00000000000000
O     2.06556130791271     0.00000000000000     0.00000000000000
O     0.00000000000000     2.06556130791271     0.00000000000000
O     0.00000000000000     0.00000000000000     2.06556130791271