CRYSTAL
# Primitive lattice vectors in Angstrom
PRIMVEC
 2.96478758971191 0.00000000000000 1.71172091301023
 0.98826252990397 2.79522854595068 1.71172091301023
 0.00000000000000 0.00000000000000 3.42344182602046
# Cartesian coordinates in Angstrom.
PRIMCOORD
 2 1
Md     0.00000000000000     0.00000000000000     0.00000000000000
O     1.97652505980794     1.39761427297533     3.42344182602046