CRYSTAL
# Primitive lattice vectors in Angstrom
PRIMVEC
 5.28052039923535 0.00000000000000 0.00000000000000
 -0.00000000000000 5.28052039923535 0.00000000000000
 0.00000000000000 0.00000000000000 5.28052039923535
# Cartesian coordinates in Angstrom.
PRIMCOORD
 10 1
Md     1.32013009980884     1.32013009980884     1.32013009980884
Md     3.96039029942652     3.96039029942652     1.32013009980884
Md     3.96039029942652     1.32013009980884     3.96039029942652
Md     1.32013009980884     3.96039029942652     3.96039029942652
O     2.64026019961768     0.00000000000000     0.00000000000000
O     0.00000000000000     2.64026019961768     0.00000000000000
O     0.00000000000000     0.00000000000000     2.64026019961768
O     2.64026019961768     2.64026019961768     0.00000000000000
O     2.64026019961768     0.00000000000000     2.64026019961768
O     0.00000000000000     2.64026019961768     2.64026019961768