CRYSTAL
# Primitive lattice vectors in Angstrom
PRIMVEC
 3.23813480961772 0.00000000000000 1.86953800400509
 1.07937826987257 3.05294277636921 1.86953800400509
 0.00000000000000 0.00000000000000 3.73907600801018
# Cartesian coordinates in Angstrom.
PRIMCOORD
 3 1
Md     0.00000000000000     0.00000000000000     0.00000000000000
O     1.07937826987257     0.76323569409230     1.86953800400509
O     3.23813480961772     2.28970708227690     5.60861401201527