CRYSTAL
# Primitive lattice vectors in Angstrom
PRIMVEC
 3.63570022648904 0.00000000000000 2.09907250445623
 1.21190007549634 3.42777104601582 2.09907250445623
 0.00000000000000 0.00000000000000 4.19814500891246
# Cartesian coordinates in Angstrom.
PRIMCOORD
 3 1
Md     1.21190007549634     0.85694276150395     2.09907250445623
Md     3.63570022648904     2.57082828451187     6.29721751336870
O     0.00000000000000     0.00000000000000     0.00000000000000