CRYSTAL
# Primitive lattice vectors in Angstrom
PRIMVEC
 5.34668315810006 0.00000000000000 0.00000000000000
 -0.00000000000000 5.34668315810006 0.00000000000000
 0.00000000000000 0.00000000000000 5.34668315810006
# Cartesian coordinates in Angstrom.
PRIMCOORD
 14 1
Md     0.00000000000000     0.00000000000000     0.00000000000000
Md     2.67334157905003     2.67334157905003     0.00000000000000
Md     2.67334157905003     0.00000000000000     2.67334157905003
Md     0.00000000000000     2.67334157905003     2.67334157905003
O     2.67334157905003     0.00000000000000     0.00000000000000
O     0.00000000000000     2.67334157905003     0.00000000000000
O     0.00000000000000     0.00000000000000     2.67334157905003
O     2.67334157905003     2.67334157905003     2.67334157905003
O     4.01001236857504     4.01001236857504     1.33667078952501
O     4.01001236857504     1.33667078952501     4.01001236857504
O     1.33667078952501     4.01001236857504     4.01001236857504
O     4.01001236857504     1.33667078952501     1.33667078952501
O     1.33667078952501     4.01001236857504     1.33667078952501
O     1.33667078952501     1.33667078952501     4.01001236857504