CRYSTAL
# Primitive lattice vectors in Angstrom
PRIMVEC
 2.58032678778374 0.00000000000000 1.48975236552414
 0.86010892926125 2.43275542575891 1.48975236552414
 0.00000000000000 0.00000000000000 2.97950473104829
# Cartesian coordinates in Angstrom.
PRIMCOORD
 2 1
Mg     0.00000000000000     0.00000000000000     0.00000000000000
O     1.72021785852249     1.21637771287945     2.97950473104829