CRYSTAL
# Primitive lattice vectors in Angstrom
PRIMVEC
 3.00073377589761 0.00000000000000 1.73247445328089
 1.00024459196587 2.82911893529696 1.73247445328089
 0.00000000000000 0.00000000000000 3.46494890656178
# Cartesian coordinates in Angstrom.
PRIMCOORD
 3 1
Mg     0.00000000000000     0.00000000000000     0.00000000000000
O     1.00024459196587     0.70727973382424     1.73247445328089
O     3.00073377589761     2.12183920147272     5.19742335984267