CRYSTAL
# Primitive lattice vectors in Angstrom
PRIMVEC
 3.90430112911658 0.00000000000000 0.00000000000000
 -0.00000000000000 3.90430112911658 0.00000000000000
 0.00000000000000 0.00000000000000 3.90430112911658
# Cartesian coordinates in Angstrom.
PRIMCOORD
 4 1
Mg     0.00000000000000     0.00000000000000     0.00000000000000
O     1.95215056455828     0.00000000000000     0.00000000000000
O     0.00000000000000     1.95215056455828     0.00000000000000
O     0.00000000000000     0.00000000000000     1.95215056455828