CRYSTAL
# Primitive lattice vectors in Angstrom
PRIMVEC
 4.78922364093098 0.00000000000000 0.00000000000000
 -0.00000000000000 4.78922364093098 0.00000000000000
 0.00000000000000 0.00000000000000 4.78922364093098
# Cartesian coordinates in Angstrom.
PRIMCOORD
 10 1
Mg     1.19730591023274     1.19730591023274     1.19730591023274
Mg     3.59191773069824     3.59191773069824     1.19730591023274
Mg     3.59191773069824     1.19730591023274     3.59191773069824
Mg     1.19730591023274     3.59191773069824     3.59191773069824
O     2.39461182046550     0.00000000000000     0.00000000000000
O     0.00000000000000     2.39461182046550     0.00000000000000
O     0.00000000000000     0.00000000000000     2.39461182046550
O     2.39461182046550     2.39461182046550     0.00000000000000
O     2.39461182046550     0.00000000000000     2.39461182046550
O     0.00000000000000     2.39461182046550     2.39461182046550