CRYSTAL
# Primitive lattice vectors in Angstrom
PRIMVEC
 3.41975996214820 0.00000000000000 1.97439933471017
 1.13991998738273 3.22418061235366 1.97439933471017
 0.00000000000000 0.00000000000000 3.94879866942034
# Cartesian coordinates in Angstrom.
PRIMCOORD
 3 1
Mg     1.13991998738273     0.80604515308841     1.97439933471017
Mg     3.41975996214820     2.41813545926524     5.92319800413051
O     0.00000000000000     0.00000000000000     0.00000000000000