CRYSTAL
# Primitive lattice vectors in Angstrom
PRIMVEC
 5.10761559643405 0.00000000000000 0.00000000000000
 -0.00000000000000 5.10761559643405 0.00000000000000
 0.00000000000000 0.00000000000000 5.10761559643405
# Cartesian coordinates in Angstrom.
PRIMCOORD
 14 1
Mg     0.00000000000000     0.00000000000000     0.00000000000000
Mg     2.55380779821703     2.55380779821703     0.00000000000000
Mg     2.55380779821703     0.00000000000000     2.55380779821703
Mg     0.00000000000000     2.55380779821703     2.55380779821703
O     2.55380779821703     0.00000000000000     0.00000000000000
O     0.00000000000000     2.55380779821703     0.00000000000000
O     0.00000000000000     0.00000000000000     2.55380779821703
O     2.55380779821703     2.55380779821703     2.55380779821703
O     3.83071169732554     3.83071169732554     1.27690389910851
O     3.83071169732554     1.27690389910851     3.83071169732554
O     1.27690389910851     3.83071169732554     3.83071169732554
O     3.83071169732554     1.27690389910851     1.27690389910851
O     1.27690389910851     3.83071169732554     1.27690389910851
O     1.27690389910851     1.27690389910851     3.83071169732554