CRYSTAL
# Primitive lattice vectors in Angstrom
PRIMVEC
 2.95807263150218 0.00000000000000 1.70784403008025
 0.98602421050072 2.78889762263670 1.70784403008025
 0.00000000000000 0.00000000000000 3.41568806016050
# Cartesian coordinates in Angstrom.
PRIMCOORD
 3 1
Mn     0.98602421050072     0.69722440565917     1.70784403008025
Mn     2.95807263150218     2.09167321697753     5.12353209024075
O     0.00000000000000     0.00000000000000     0.00000000000000