CRYSTAL
# Primitive lattice vectors in Angstrom
PRIMVEC
 3.53517942938630 0.00000000000000 0.00000000000000
 -0.00000000000000 3.53517942938630 0.00000000000000
 0.00000000000000 0.00000000000000 3.53517942938630
# Cartesian coordinates in Angstrom.
PRIMCOORD
 4 1
Mn     0.00000000000000     0.00000000000000     0.00000000000000
O     1.76758971469315     0.00000000000000     0.00000000000000
O     0.00000000000000     1.76758971469315     0.00000000000000
O     0.00000000000000     0.00000000000000     1.76758971469315