CRYSTAL
# Primitive lattice vectors in Angstrom
PRIMVEC
 2.79217637692626 0.00000000000000 1.61206378284329
 0.93072545897542 2.63248913385793 1.61206378284329
 0.00000000000000 0.00000000000000 3.22412756568658
# Cartesian coordinates in Angstrom.
PRIMCOORD
 3 1
Mn     0.00000000000000     0.00000000000000     0.00000000000000
O     0.93072545897542     0.65812228346448     1.61206378284329
O     2.79217637692626     1.97436685039344     4.83619134852987