CRYSTAL
# Primitive lattice vectors in Angstrom
PRIMVEC
 2.47498659331603 0.00000000000000 1.42893417589172
 0.82499553110534 2.33343973797274 1.42893417589172
 0.00000000000000 0.00000000000000 2.85786835178344
# Cartesian coordinates in Angstrom.
PRIMCOORD
 2 1
Mn     0.00000000000000     0.00000000000000     0.00000000000000
O     1.64999106221069     1.16671986898637     2.85786835178344