CRYSTAL
# Primitive lattice vectors in Angstrom
PRIMVEC
 4.79313245881166 0.00000000000000 0.00000000000000
 -0.00000000000000 4.79313245881166 0.00000000000000
 0.00000000000000 0.00000000000000 4.79313245881166
# Cartesian coordinates in Angstrom.
PRIMCOORD
 14 1
Mn     0.00000000000000     0.00000000000000     0.00000000000000
Mn     2.39656622940583     2.39656622940583     0.00000000000000
Mn     2.39656622940583     0.00000000000000     2.39656622940583
Mn     0.00000000000000     2.39656622940583     2.39656622940583
O     2.39656622940583     0.00000000000000     0.00000000000000
O     0.00000000000000     2.39656622940583     0.00000000000000
O     0.00000000000000     0.00000000000000     2.39656622940583
O     2.39656622940583     2.39656622940583     2.39656622940583
O     3.59484934410874     3.59484934410874     1.19828311470291
O     3.59484934410874     1.19828311470291     3.59484934410874
O     1.19828311470291     3.59484934410874     3.59484934410874
O     3.59484934410874     1.19828311470291     1.19828311470291
O     1.19828311470291     3.59484934410874     1.19828311470291
O     1.19828311470291     1.19828311470291     3.59484934410874