CRYSTAL
# Primitive lattice vectors in Angstrom
PRIMVEC
 4.46913289606048 0.00000000000000 0.00000000000000
 -0.00000000000000 4.46913289606048 0.00000000000000
 0.00000000000000 0.00000000000000 4.46913289606048
# Cartesian coordinates in Angstrom.
PRIMCOORD
 10 1
Mn     1.11728322401512     1.11728322401512     1.11728322401512
Mn     3.35184967204536     3.35184967204536     1.11728322401512
Mn     3.35184967204536     1.11728322401512     3.35184967204536
Mn     1.11728322401512     3.35184967204536     3.35184967204536
O     2.23456644803024     0.00000000000000     0.00000000000000
O     0.00000000000000     2.23456644803024     0.00000000000000
O     0.00000000000000     0.00000000000000     2.23456644803024
O     2.23456644803024     2.23456644803024     0.00000000000000
O     2.23456644803024     0.00000000000000     2.23456644803024
O     0.00000000000000     2.23456644803024     2.23456644803024