CRYSTAL
# Primitive lattice vectors in Angstrom
PRIMVEC
 4.94921308382094 0.00000000000000 0.00000000000000
 -0.00000000000000 4.94921308382094 0.00000000000000
 0.00000000000000 0.00000000000000 4.94921308382094
# Cartesian coordinates in Angstrom.
PRIMCOORD
 14 1
Mo     0.00000000000000     0.00000000000000     0.00000000000000
Mo     2.47460654191047     2.47460654191047     0.00000000000000
Mo     2.47460654191047     0.00000000000000     2.47460654191047
Mo     0.00000000000000     2.47460654191047     2.47460654191047
O     2.47460654191047     0.00000000000000     0.00000000000000
O     0.00000000000000     2.47460654191047     0.00000000000000
O     0.00000000000000     0.00000000000000     2.47460654191047
O     2.47460654191047     2.47460654191047     2.47460654191047
O     3.71190981286571     3.71190981286571     1.23730327095524
O     3.71190981286571     1.23730327095524     3.71190981286571
O     1.23730327095524     3.71190981286571     3.71190981286571
O     3.71190981286571     1.23730327095524     1.23730327095524
O     1.23730327095524     3.71190981286571     1.23730327095524
O     1.23730327095524     1.23730327095524     3.71190981286571