CRYSTAL
# Primitive lattice vectors in Angstrom
PRIMVEC
 3.27277196336965 0.00000000000000 1.88953577404773
 1.09092398778988 3.08559899810119 1.88953577404773
 0.00000000000000 0.00000000000000 3.77907154809546
# Cartesian coordinates in Angstrom.
PRIMCOORD
 3 1
Mo     1.09092398778988     0.77139974952529     1.88953577404773
Mo     3.27277196336965     2.31419924857589     5.66860732214318
O     0.00000000000000     0.00000000000000     0.00000000000000