CRYSTAL
# Primitive lattice vectors in Angstrom
PRIMVEC
 4.78706655062374 0.00000000000000 0.00000000000000
 -0.00000000000000 4.78706655062374 0.00000000000000
 0.00000000000000 0.00000000000000 4.78706655062374
# Cartesian coordinates in Angstrom.
PRIMCOORD
 10 1
Mo     1.19676663765593     1.19676663765593     1.19676663765593
Mo     3.59029991296781     3.59029991296781     1.19676663765593
Mo     3.59029991296781     1.19676663765593     3.59029991296781
Mo     1.19676663765593     3.59029991296781     3.59029991296781
O     2.39353327531188     0.00000000000000     0.00000000000000
O     0.00000000000000     2.39353327531188     0.00000000000000
O     0.00000000000000     0.00000000000000     2.39353327531188
O     2.39353327531188     2.39353327531188     0.00000000000000
O     2.39353327531188     0.00000000000000     2.39353327531188
O     0.00000000000000     2.39353327531188     2.39353327531188