CRYSTAL
# Primitive lattice vectors in Angstrom
PRIMVEC
 2.66738312232269 0.00000000000000 1.54001436370487
 0.88912770744090 2.51483292508923 1.54001436370487
 0.00000000000000 0.00000000000000 3.08002872740974
# Cartesian coordinates in Angstrom.
PRIMCOORD
 2 1
Mo     0.00000000000000     0.00000000000000     0.00000000000000
O     1.77825541488179     1.25741646254461     3.08002872740974