CRYSTAL
# Primitive lattice vectors in Angstrom
PRIMVEC
 2.97744853601788 0.00000000000000 1.71903071376818
 0.99248284533929 2.80716540060294 1.71903071376818
 0.00000000000000 0.00000000000000 3.43806142753636
# Cartesian coordinates in Angstrom.
PRIMCOORD
 3 1
Mo     0.00000000000000     0.00000000000000     0.00000000000000
O     0.99248284533929     0.70179135015073     1.71903071376818
O     2.97744853601788     2.10537405045220     5.15709214130455