CRYSTAL
# Primitive lattice vectors in Angstrom
PRIMVEC
 3.78819886727811 0.00000000000000 0.00000000000000
 -0.00000000000000 3.78819886727811 0.00000000000000
 0.00000000000000 0.00000000000000 3.78819886727811
# Cartesian coordinates in Angstrom.
PRIMCOORD
 4 1
Mo     0.00000000000000     0.00000000000000     0.00000000000000
O     1.89409943363905     0.00000000000000     0.00000000000000
O     0.00000000000000     1.89409943363905     0.00000000000000
O     0.00000000000000     0.00000000000000     1.89409943363905