CRYSTAL
# Primitive lattice vectors in Angstrom
PRIMVEC
 4.76349715208086 0.00000000000000 0.00000000000000
 -0.00000000000000 4.76349715208086 0.00000000000000
 0.00000000000000 0.00000000000000 4.76349715208086
# Cartesian coordinates in Angstrom.
PRIMCOORD
 14 1
N     0.00000000000000     0.00000000000000     0.00000000000000
N     2.38174857604043     2.38174857604043     0.00000000000000
N     2.38174857604043     0.00000000000000     2.38174857604043
N     0.00000000000000     2.38174857604043     2.38174857604043
O     2.38174857604043     0.00000000000000     0.00000000000000
O     0.00000000000000     2.38174857604043     0.00000000000000
O     0.00000000000000     0.00000000000000     2.38174857604043
O     2.38174857604043     2.38174857604043     2.38174857604043
O     3.57262286406064     3.57262286406064     1.19087428802021
O     3.57262286406064     1.19087428802021     3.57262286406064
O     1.19087428802021     3.57262286406064     3.57262286406064
O     3.57262286406064     1.19087428802021     1.19087428802021
O     1.19087428802021     3.57262286406064     1.19087428802021
O     1.19087428802021     1.19087428802021     3.57262286406064