CRYSTAL
# Primitive lattice vectors in Angstrom
PRIMVEC
 2.85310282684022 0.00000000000000 1.64723968510189
 0.95103427561341 2.68993114170831 1.64723968510189
 0.00000000000000 0.00000000000000 3.29447937020377
# Cartesian coordinates in Angstrom.
PRIMCOORD
 3 1
N     0.95103427561341     0.67248278542708     1.64723968510189
N     2.85310282684023     2.01744835628123     4.94171905530566
O     0.00000000000000     0.00000000000000     0.00000000000000