CRYSTAL
# Primitive lattice vectors in Angstrom
PRIMVEC
 4.43195115857738 0.00000000000000 0.00000000000000
 -0.00000000000000 4.43195115857738 0.00000000000000
 0.00000000000000 0.00000000000000 4.43195115857738
# Cartesian coordinates in Angstrom.
PRIMCOORD
 10 1
N     1.10798778964434     1.10798778964434     1.10798778964434
N     3.32396336893304     3.32396336893304     1.10798778964434
N     3.32396336893304     1.10798778964434     3.32396336893304
N     1.10798778964434     3.32396336893304     3.32396336893304
O     2.21597557928869     0.00000000000000     0.00000000000000
O     0.00000000000000     2.21597557928869     0.00000000000000
O     0.00000000000000     0.00000000000000     2.21597557928869
O     2.21597557928869     2.21597557928869     0.00000000000000
O     2.21597557928869     0.00000000000000     2.21597557928869
O     0.00000000000000     2.21597557928869     2.21597557928869