CRYSTAL
# Primitive lattice vectors in Angstrom
PRIMVEC
 3.35205835498714 0.00000000000000 0.00000000000000
 -0.00000000000000 3.35205835498714 0.00000000000000
 0.00000000000000 0.00000000000000 3.35205835498714
# Cartesian coordinates in Angstrom.
PRIMCOORD
 4 1
N     0.00000000000000     0.00000000000000     0.00000000000000
O     1.67602917749357     0.00000000000000     0.00000000000000
O     0.00000000000000     1.67602917749357     0.00000000000000
O     0.00000000000000     0.00000000000000     1.67602917749357