CRYSTAL
# Primitive lattice vectors in Angstrom
PRIMVEC
 2.37394888613484 0.00000000000000 1.37060002845236
 0.79131629537828 2.23818047410160 1.37060002845236
 0.00000000000000 0.00000000000000 2.74120005690472
# Cartesian coordinates in Angstrom.
PRIMCOORD
 2 1
N     0.00000000000000     0.00000000000000     0.00000000000000
O     1.58263259075656     1.11909023705079     2.74120005690472