CRYSTAL
# Primitive lattice vectors in Angstrom
PRIMVEC
 2.81404574956607 0.00000000000000 1.62469007102389
 0.93801524985536 2.65310777611647 1.62469007102389
 0.00000000000000 0.00000000000000 3.24938014204779
# Cartesian coordinates in Angstrom.
PRIMCOORD
 3 1
N     0.00000000000000     0.00000000000000     0.00000000000000
O     0.93801524985536     0.66327694402912     1.62469007102389
O     2.81404574956607     1.98983083208735     4.87407021307169