CRYSTAL
# Primitive lattice vectors in Angstrom
PRIMVEC
 5.19172420122316 0.00000000000000 0.00000000000000
 -0.00000000000000 5.19172420122316 0.00000000000000
 0.00000000000000 0.00000000000000 5.19172420122316
# Cartesian coordinates in Angstrom.
PRIMCOORD
 14 1
Na     0.00000000000000     0.00000000000000     0.00000000000000
Na     2.59586210061158     2.59586210061158     0.00000000000000
Na     2.59586210061158     0.00000000000000     2.59586210061158
Na     0.00000000000000     2.59586210061158     2.59586210061158
O     2.59586210061158     0.00000000000000     0.00000000000000
O     0.00000000000000     2.59586210061158     0.00000000000000
O     0.00000000000000     0.00000000000000     2.59586210061158
O     2.59586210061158     2.59586210061158     2.59586210061158
O     3.89379315091737     3.89379315091737     1.29793105030579
O     3.89379315091737     1.29793105030579     3.89379315091737
O     1.29793105030579     3.89379315091737     3.89379315091737
O     3.89379315091737     1.29793105030579     1.29793105030579
O     1.29793105030579     3.89379315091737     1.29793105030579
O     1.29793105030579     1.29793105030579     3.89379315091737