CRYSTAL
# Primitive lattice vectors in Angstrom
PRIMVEC
 5.11293362395890 0.00000000000000 0.00000000000000
 -0.00000000000000 5.11293362395890 0.00000000000000
 0.00000000000000 0.00000000000000 5.11293362395890
# Cartesian coordinates in Angstrom.
PRIMCOORD
 10 1
Na     1.27823340598972     1.27823340598972     1.27823340598972
Na     3.83470021796917     3.83470021796917     1.27823340598972
Na     3.83470021796917     1.27823340598972     3.83470021796917
Na     1.27823340598972     3.83470021796917     3.83470021796917
O     2.55646681197945     0.00000000000000     0.00000000000000
O     0.00000000000000     2.55646681197945     0.00000000000000
O     0.00000000000000     0.00000000000000     2.55646681197945
O     2.55646681197945     2.55646681197945     0.00000000000000
O     2.55646681197945     0.00000000000000     2.55646681197945
O     0.00000000000000     2.55646681197945     2.55646681197945