CRYSTAL
# Primitive lattice vectors in Angstrom
PRIMVEC
 2.89304616845588 0.00000000000000 1.67030098413601
 0.96434872281863 2.72759008533455 1.67030098413601
 0.00000000000000 0.00000000000000 3.34060196827203
# Cartesian coordinates in Angstrom.
PRIMCOORD
 2 1
Na     0.00000000000000     0.00000000000000     0.00000000000000
O     1.92869744563725     1.36379504266727     3.34060196827203