CRYSTAL
# Primitive lattice vectors in Angstrom
PRIMVEC
 4.24164157477844 0.00000000000000 0.00000000000000
 -0.00000000000000 4.24164157477844 0.00000000000000
 0.00000000000000 0.00000000000000 4.24164157477844
# Cartesian coordinates in Angstrom.
PRIMCOORD
 4 1
Na     0.00000000000000     0.00000000000000     0.00000000000000
O     2.12082078738922     0.00000000000000     0.00000000000000
O     0.00000000000000     2.12082078738922     0.00000000000000
O     0.00000000000000     0.00000000000000     2.12082078738922