CRYSTAL
# Primitive lattice vectors in Angstrom
PRIMVEC
 3.38161699947041 0.00000000000000 1.95237748494046
 1.12720566649013 3.18821908226831 1.95237748494046
 0.00000000000000 0.00000000000000 3.90475496988092
# Cartesian coordinates in Angstrom.
PRIMCOORD
 3 1
Na     1.12720566649013     0.79705477056708     1.95237748494046
Na     3.38161699947041     2.39116431170124     5.85713245482138
O     0.00000000000000     0.00000000000000     0.00000000000000