CRYSTAL
# Primitive lattice vectors in Angstrom
PRIMVEC
 3.15787037489153 0.00000000000000 1.82319731100957
 1.05262345829717 2.97726874159188 1.82319731100957
 0.00000000000000 0.00000000000000 3.64639462201914
# Cartesian coordinates in Angstrom.
PRIMCOORD
 3 1
Na     0.00000000000000     0.00000000000000     0.00000000000000
O     1.05262345829717     0.74431718539797     1.82319731100957
O     3.15787037489153     2.23295155619391     5.46959193302871