CRYSTAL
# Primitive lattice vectors in Angstrom
PRIMVEC
 3.02897109025026 0.00000000000000 1.74877727432358
 1.00965703008342 2.85574133057863 1.74877727432358
 0.00000000000000 0.00000000000000 3.49755454864716
# Cartesian coordinates in Angstrom.
PRIMCOORD
 3 1
Nb     0.00000000000000     0.00000000000000     0.00000000000000
O     1.00965703008342     0.71393533264466     1.74877727432358
O     3.02897109025026     2.14180599793397     5.24633182297075