CRYSTAL
# Primitive lattice vectors in Angstrom
PRIMVEC
 3.91972834681244 0.00000000000000 0.00000000000000
 -0.00000000000000 3.91972834681244 0.00000000000000
 0.00000000000000 0.00000000000000 3.91972834681244
# Cartesian coordinates in Angstrom.
PRIMCOORD
 4 1
Nb     0.00000000000000     0.00000000000000     0.00000000000000
O     1.95986417340622     0.00000000000000     0.00000000000000
O     0.00000000000000     1.95986417340622     0.00000000000000
O     0.00000000000000     0.00000000000000     1.95986417340622