CRYSTAL
# Primitive lattice vectors in Angstrom
PRIMVEC
 5.02785001624846 0.00000000000000 0.00000000000000
 -0.00000000000000 5.02785001624846 0.00000000000000
 0.00000000000000 0.00000000000000 5.02785001624846
# Cartesian coordinates in Angstrom.
PRIMCOORD
 14 1
Nb     0.00000000000000     0.00000000000000     0.00000000000000
Nb     2.51392500812423     2.51392500812423     0.00000000000000
Nb     2.51392500812423     0.00000000000000     2.51392500812423
Nb     0.00000000000000     2.51392500812423     2.51392500812423
O     2.51392500812423     0.00000000000000     0.00000000000000
O     0.00000000000000     2.51392500812423     0.00000000000000
O     0.00000000000000     0.00000000000000     2.51392500812423
O     2.51392500812423     2.51392500812423     2.51392500812423
O     3.77088751218634     3.77088751218634     1.25696250406211
O     3.77088751218634     1.25696250406211     3.77088751218634
O     1.25696250406211     3.77088751218634     3.77088751218634
O     3.77088751218634     1.25696250406211     1.25696250406211
O     1.25696250406211     3.77088751218634     1.25696250406211
O     1.25696250406211     1.25696250406211     3.77088751218634