CRYSTAL
# Primitive lattice vectors in Angstrom
PRIMVEC
 2.70396306839816 0.00000000000000 1.56113380541848
 0.90132102279939 2.54932082898977 1.56113380541848
 0.00000000000000 0.00000000000000 3.12226761083697
# Cartesian coordinates in Angstrom.
PRIMCOORD
 2 1
Nb     0.00000000000000     0.00000000000000     0.00000000000000
O     1.80264204559878     1.27466041449488     3.12226761083697