CRYSTAL
# Primitive lattice vectors in Angstrom
PRIMVEC
 3.36624743978330 0.00000000000000 1.94350386551778
 1.12208247992776 3.17372852243016 1.94350386551778
 0.00000000000000 0.00000000000000 3.88700773103555
# Cartesian coordinates in Angstrom.
PRIMCOORD
 3 1
Nb     1.12208247992776     0.79343213060754     1.94350386551778
Nb     3.36624743978330     2.38029639182262     5.83051159655333
O     0.00000000000000     0.00000000000000     0.00000000000000