CRYSTAL
# Primitive lattice vectors in Angstrom
PRIMVEC
 4.88148593690414 0.00000000000000 0.00000000000000
 -0.00000000000000 4.88148593690414 0.00000000000000
 0.00000000000000 0.00000000000000 4.88148593690414
# Cartesian coordinates in Angstrom.
PRIMCOORD
 10 1
Nb     1.22037148422603     1.22037148422603     1.22037148422603
Nb     3.66111445267811     3.66111445267811     1.22037148422603
Nb     3.66111445267811     1.22037148422603     3.66111445267811
Nb     1.22037148422603     3.66111445267811     3.66111445267811
O     2.44074296845207     0.00000000000000     0.00000000000000
O     0.00000000000000     2.44074296845207     0.00000000000000
O     0.00000000000000     0.00000000000000     2.44074296845207
O     2.44074296845207     2.44074296845207     0.00000000000000
O     2.44074296845207     0.00000000000000     2.44074296845207
O     0.00000000000000     2.44074296845207     2.44074296845207