CRYSTAL
# Primitive lattice vectors in Angstrom
PRIMVEC
 2.95552701325133 0.00000000000000 1.70637431669786
 0.98517567108378 2.78649759073338 1.70637431669786
 0.00000000000000 0.00000000000000 3.41274863339572
# Cartesian coordinates in Angstrom.
PRIMCOORD
 2 1
Nd     0.00000000000000     0.00000000000000     0.00000000000000
O     1.97035134216755     1.39324879536669     3.41274863339572