CRYSTAL
# Primitive lattice vectors in Angstrom
PRIMVEC
 4.11729489652027 0.00000000000000 0.00000000000000
 -0.00000000000000 4.11729489652027 0.00000000000000
 0.00000000000000 0.00000000000000 4.11729489652027
# Cartesian coordinates in Angstrom.
PRIMCOORD
 4 1
Nd     0.00000000000000     0.00000000000000     0.00000000000000
O     2.05864744826013     0.00000000000000     0.00000000000000
O     0.00000000000000     2.05864744826013     0.00000000000000
O     0.00000000000000     0.00000000000000     2.05864744826013