CRYSTAL
# Primitive lattice vectors in Angstrom
PRIMVEC
 5.33631688809385 0.00000000000000 0.00000000000000
 -0.00000000000000 5.33631688809385 0.00000000000000
 0.00000000000000 0.00000000000000 5.33631688809385
# Cartesian coordinates in Angstrom.
PRIMCOORD
 14 1
Nd     0.00000000000000     0.00000000000000     0.00000000000000
Nd     2.66815844404693     2.66815844404693     0.00000000000000
Nd     2.66815844404693     0.00000000000000     2.66815844404693
Nd     0.00000000000000     2.66815844404693     2.66815844404693
O     2.66815844404693     0.00000000000000     0.00000000000000
O     0.00000000000000     2.66815844404693     0.00000000000000
O     0.00000000000000     0.00000000000000     2.66815844404693
O     2.66815844404693     2.66815844404693     2.66815844404693
O     4.00223766607039     4.00223766607039     1.33407922202346
O     4.00223766607039     1.33407922202346     4.00223766607039
O     1.33407922202346     4.00223766607039     4.00223766607039
O     4.00223766607039     1.33407922202346     1.33407922202346
O     1.33407922202346     4.00223766607039     1.33407922202346
O     1.33407922202346     1.33407922202346     4.00223766607039