CRYSTAL
# Primitive lattice vectors in Angstrom
PRIMVEC
 3.51851876043514 0.00000000000000 2.03141775348598
 1.17283958681171 3.31729130031436 2.03141775348598
 0.00000000000000 0.00000000000000 4.06283550697196
# Cartesian coordinates in Angstrom.
PRIMCOORD
 3 1
Nd     1.17283958681171     0.82932282507859     2.03141775348598
Nd     3.51851876043514     2.48796847523577     6.09425326045793
O     0.00000000000000     0.00000000000000     0.00000000000000