CRYSTAL
# Primitive lattice vectors in Angstrom
PRIMVEC
 5.31817251443009 0.00000000000000 0.00000000000000
 -0.00000000000000 5.31817251443009 0.00000000000000
 0.00000000000000 0.00000000000000 5.31817251443009
# Cartesian coordinates in Angstrom.
PRIMCOORD
 10 1
Nd     1.32954312860752     1.32954312860752     1.32954312860752
Nd     3.98862938582257     3.98862938582257     1.32954312860752
Nd     3.98862938582257     1.32954312860752     3.98862938582257
Nd     1.32954312860752     3.98862938582257     3.98862938582257
O     2.65908625721505     0.00000000000000     0.00000000000000
O     0.00000000000000     2.65908625721505     0.00000000000000
O     0.00000000000000     0.00000000000000     2.65908625721505
O     2.65908625721505     2.65908625721505     0.00000000000000
O     2.65908625721505     0.00000000000000     2.65908625721505
O     0.00000000000000     2.65908625721505     2.65908625721505