CRYSTAL
# Primitive lattice vectors in Angstrom
PRIMVEC
 3.25414236540426 0.00000000000000 1.87877997064751
 1.08471412180142 3.06803484469838 1.87877997064751
 0.00000000000000 0.00000000000000 3.75755994129502
# Cartesian coordinates in Angstrom.
PRIMCOORD
 3 1
Nd     0.00000000000000     0.00000000000000     0.00000000000000
O     1.08471412180142     0.76700871117459     1.87877997064751
O     3.25414236540426     2.30102613352378     5.63633991194254