CRYSTAL
# Primitive lattice vectors in Angstrom
PRIMVEC
 4.39600468207407 0.00000000000000 2.53803448655432
 1.46533489402469 4.14459296109651 2.53803448655432
 0.00000000000000 0.00000000000000 5.07606897310864
# Cartesian coordinates in Angstrom.
PRIMCOORD
 3 1
Ne     1.46533489402469     1.03614824027413     2.53803448655432
Ne     4.39600468207407     3.10844472082239     7.61410345966296
O     0.00000000000000     0.00000000000000     0.00000000000000