CRYSTAL
# Primitive lattice vectors in Angstrom
PRIMVEC
 5.05400967741593 0.00000000000000 0.00000000000000
 -0.00000000000000 5.05400967741593 0.00000000000000
 0.00000000000000 0.00000000000000 5.05400967741593
# Cartesian coordinates in Angstrom.
PRIMCOORD
 14 1
Ne     0.00000000000000     0.00000000000000     0.00000000000000
Ne     2.52700483870796     2.52700483870796     0.00000000000000
Ne     2.52700483870796     0.00000000000000     2.52700483870796
Ne     0.00000000000000     2.52700483870796     2.52700483870796
O     2.52700483870796     0.00000000000000     0.00000000000000
O     0.00000000000000     2.52700483870796     0.00000000000000
O     0.00000000000000     0.00000000000000     2.52700483870796
O     2.52700483870796     2.52700483870796     2.52700483870796
O     3.79050725806195     3.79050725806195     1.26350241935398
O     3.79050725806195     1.26350241935398     3.79050725806195
O     1.26350241935398     3.79050725806195     3.79050725806195
O     3.79050725806195     1.26350241935398     1.26350241935398
O     1.26350241935398     3.79050725806195     1.26350241935398
O     1.26350241935398     1.26350241935398     3.79050725806195