CRYSTAL
# Primitive lattice vectors in Angstrom
PRIMVEC
 4.14347087439598 0.00000000000000 0.00000000000000
 -0.00000000000000 4.14347087439598 0.00000000000000
 0.00000000000000 0.00000000000000 4.14347087439598
# Cartesian coordinates in Angstrom.
PRIMCOORD
 4 1
Ne     0.00000000000000     0.00000000000000     0.00000000000000
O     2.07173543719799     0.00000000000000     0.00000000000000
O     0.00000000000000     2.07173543719799     0.00000000000000
O     0.00000000000000     0.00000000000000     2.07173543719799