CRYSTAL
# Primitive lattice vectors in Angstrom
PRIMVEC
 5.26864054999798 0.00000000000000 0.00000000000000
 -0.00000000000000 5.26864054999798 0.00000000000000
 0.00000000000000 0.00000000000000 5.26864054999798
# Cartesian coordinates in Angstrom.
PRIMCOORD
 10 1
Ne     1.31716013749949     1.31716013749949     1.31716013749949
Ne     3.95148041249848     3.95148041249848     1.31716013749949
Ne     3.95148041249848     1.31716013749949     3.95148041249848
Ne     1.31716013749949     3.95148041249848     3.95148041249848
O     2.63432027499899     0.00000000000000     0.00000000000000
O     0.00000000000000     2.63432027499899     0.00000000000000
O     0.00000000000000     0.00000000000000     2.63432027499899
O     2.63432027499899     2.63432027499899     0.00000000000000
O     2.63432027499899     0.00000000000000     2.63432027499899
O     0.00000000000000     2.63432027499899     2.63432027499899