CRYSTAL
# Primitive lattice vectors in Angstrom
PRIMVEC
 3.18076784216032 0.00000000000000 1.83641716990097
 1.06025594738677 2.99885668076222 1.83641716990097
 0.00000000000000 0.00000000000000 3.67283433980193
# Cartesian coordinates in Angstrom.
PRIMCOORD
 3 1
Ne     0.00000000000000     0.00000000000000     0.00000000000000
O     1.06025594738677     0.74971417019056     1.83641716990097
O     3.18076784216032     2.24914251057167     5.50925150970291