CRYSTAL
# Primitive lattice vectors in Angstrom
PRIMVEC
 3.31297158275365 0.00000000000000 1.91274503512040
 1.10432386091788 3.12349956272458 1.91274503512040
 0.00000000000000 0.00000000000000 3.82549007024079
# Cartesian coordinates in Angstrom.
PRIMCOORD
 2 1
Ne     0.00000000000000     0.00000000000000     0.00000000000000
O     2.20864772183576     1.56174978136228     3.82549007024079