CRYSTAL
# Primitive lattice vectors in Angstrom
PRIMVEC
 4.51227915133040 0.00000000000000 0.00000000000000
 -0.00000000000000 4.51227915133040 0.00000000000000
 0.00000000000000 0.00000000000000 4.51227915133040
# Cartesian coordinates in Angstrom.
PRIMCOORD
 10 1
Ni     1.12806978783260     1.12806978783260     1.12806978783260
Ni     3.38420936349780     3.38420936349780     1.12806978783260
Ni     3.38420936349780     1.12806978783260     3.38420936349780
Ni     1.12806978783260     3.38420936349780     3.38420936349780
O     2.25613957566520     0.00000000000000     0.00000000000000
O     0.00000000000000     2.25613957566520     0.00000000000000
O     0.00000000000000     0.00000000000000     2.25613957566520
O     2.25613957566520     2.25613957566520     0.00000000000000
O     2.25613957566520     0.00000000000000     2.25613957566520
O     0.00000000000000     2.25613957566520     2.25613957566520