CRYSTAL
# Primitive lattice vectors in Angstrom
PRIMVEC
 3.01811580789810 0.00000000000000 1.74250997413544
 1.00603860263270 2.84550687222808 1.74250997413544
 0.00000000000000 0.00000000000000 3.48501994827087
# Cartesian coordinates in Angstrom.
PRIMCOORD
 3 1
Ni     1.00603860263270     0.71137671805702     1.74250997413544
Ni     3.01811580789810     2.13413015417106     5.22752992240631
O     0.00000000000000     0.00000000000000     0.00000000000000