CRYSTAL
# Primitive lattice vectors in Angstrom
PRIMVEC
 4.86693129040496 0.00000000000000 0.00000000000000
 -0.00000000000000 4.86693129040496 0.00000000000000
 0.00000000000000 0.00000000000000 4.86693129040496
# Cartesian coordinates in Angstrom.
PRIMCOORD
 14 1
Ni     0.00000000000000     0.00000000000000     0.00000000000000
Ni     2.43346564520248     2.43346564520248     0.00000000000000
Ni     2.43346564520248     0.00000000000000     2.43346564520248
Ni     0.00000000000000     2.43346564520248     2.43346564520248
O     2.43346564520248     0.00000000000000     0.00000000000000
O     0.00000000000000     2.43346564520248     0.00000000000000
O     0.00000000000000     0.00000000000000     2.43346564520248
O     2.43346564520248     2.43346564520248     2.43346564520248
O     3.65019846780372     3.65019846780372     1.21673282260124
O     3.65019846780372     1.21673282260124     3.65019846780372
O     1.21673282260124     3.65019846780372     3.65019846780372
O     3.65019846780372     1.21673282260124     1.21673282260124
O     1.21673282260124     3.65019846780372     1.21673282260124
O     1.21673282260124     1.21673282260124     3.65019846780372