CRYSTAL
# Primitive lattice vectors in Angstrom
PRIMVEC
 2.84552137819237 0.00000000000000 1.64286253368420
 0.94850712606412 2.68278328337483 1.64286253368420
 0.00000000000000 0.00000000000000 3.28572506736840
# Cartesian coordinates in Angstrom.
PRIMCOORD
 3 1
Ni     0.00000000000000     0.00000000000000     0.00000000000000
O     0.94850712606412     0.67069582084371     1.64286253368420
O     2.84552137819237     2.01208746253112     4.92858760105261