CRYSTAL
# Primitive lattice vectors in Angstrom
PRIMVEC
 2.50572372788505 0.00000000000000 1.44668026880926
 0.83524124262835 2.36241898635674 1.44668026880926
 0.00000000000000 0.00000000000000 2.89336053761853
# Cartesian coordinates in Angstrom.
PRIMCOORD
 2 1
Ni     0.00000000000000     0.00000000000000     0.00000000000000
O     1.67048248525670     1.18120949317837     2.89336053761853