CRYSTAL
# Primitive lattice vectors in Angstrom
PRIMVEC
 3.78686778023280 0.00000000000000 2.18634913230293
 1.26228926007760 3.57029318247928 2.18634913230293
 0.00000000000000 0.00000000000000 4.37269826460586
# Cartesian coordinates in Angstrom.
PRIMCOORD
 3 1
No     1.26228926007760     0.89257329561982     2.18634913230293
No     3.78686778023280     2.67771988685946     6.55904739690878
O     0.00000000000000     0.00000000000000     0.00000000000000