CRYSTAL
# Primitive lattice vectors in Angstrom
PRIMVEC
 4.20996648177620 0.00000000000000 0.00000000000000
 -0.00000000000000 4.20996648177620 0.00000000000000
 0.00000000000000 0.00000000000000 4.20996648177620
# Cartesian coordinates in Angstrom.
PRIMCOORD
 4 1
No     0.00000000000000     0.00000000000000     0.00000000000000
O     2.10498324088810     0.00000000000000     0.00000000000000
O     0.00000000000000     2.10498324088810     0.00000000000000
O     0.00000000000000     0.00000000000000     2.10498324088810