CRYSTAL
# Primitive lattice vectors in Angstrom
PRIMVEC
 3.27841392489991 0.00000000000000 1.89279316205598
 1.09280464163330 3.09091829044418 1.89279316205598
 0.00000000000000 0.00000000000000 3.78558632411196
# Cartesian coordinates in Angstrom.
PRIMCOORD
 3 1
No     0.00000000000000     0.00000000000000     0.00000000000000
O     1.09280464163330     0.77272957261105     1.89279316205598
O     3.27841392489991     2.31818871783314     5.67837948616795