CRYSTAL
# Primitive lattice vectors in Angstrom
PRIMVEC
 5.35628190884367 0.00000000000000 0.00000000000000
 -0.00000000000000 5.35628190884367 0.00000000000000
 0.00000000000000 0.00000000000000 5.35628190884367
# Cartesian coordinates in Angstrom.
PRIMCOORD
 10 1
No     1.33907047721092     1.33907047721092     1.33907047721092
No     4.01721143163276     4.01721143163276     1.33907047721092
No     4.01721143163276     1.33907047721092     4.01721143163276
No     1.33907047721092     4.01721143163276     4.01721143163276
O     2.67814095442184     0.00000000000000     0.00000000000000
O     0.00000000000000     2.67814095442184     0.00000000000000
O     0.00000000000000     0.00000000000000     2.67814095442184
O     2.67814095442184     2.67814095442184     0.00000000000000
O     2.67814095442184     0.00000000000000     2.67814095442184
O     0.00000000000000     2.67814095442184     2.67814095442184