CRYSTAL
# Primitive lattice vectors in Angstrom
PRIMVEC
 5.41716025797750 0.00000000000000 0.00000000000000
 -0.00000000000000 5.41716025797750 0.00000000000000
 0.00000000000000 0.00000000000000 5.41716025797750
# Cartesian coordinates in Angstrom.
PRIMCOORD
 14 1
No     0.00000000000000     0.00000000000000     0.00000000000000
No     2.70858012898875     2.70858012898875     0.00000000000000
No     2.70858012898875     0.00000000000000     2.70858012898875
No     0.00000000000000     2.70858012898875     2.70858012898875
O     2.70858012898875     0.00000000000000     0.00000000000000
O     0.00000000000000     2.70858012898875     0.00000000000000
O     0.00000000000000     0.00000000000000     2.70858012898875
O     2.70858012898875     2.70858012898875     2.70858012898875
O     4.06287019348312     4.06287019348312     1.35429006449437
O     4.06287019348312     1.35429006449437     4.06287019348312
O     1.35429006449437     4.06287019348312     4.06287019348312
O     4.06287019348312     1.35429006449437     1.35429006449437
O     1.35429006449437     4.06287019348312     1.35429006449437
O     1.35429006449437     1.35429006449437     4.06287019348312