CRYSTAL
# Primitive lattice vectors in Angstrom
PRIMVEC
 3.00938963973659 0.00000000000000 1.73747191859839
 1.00312987991220 2.83727976198704 1.73747191859839
 0.00000000000000 0.00000000000000 3.47494383719678
# Cartesian coordinates in Angstrom.
PRIMCOORD
 2 1
No     0.00000000000000     0.00000000000000     0.00000000000000
O     2.00625975982439     1.41863988099352     3.47494383719678