CRYSTAL
# Primitive lattice vectors in Angstrom
PRIMVEC
 4.08783006782335 0.00000000000000 0.00000000000000
 -0.00000000000000 4.08783006782335 0.00000000000000
 0.00000000000000 0.00000000000000 4.08783006782335
# Cartesian coordinates in Angstrom.
PRIMCOORD
 4 1
Np     0.00000000000000     0.00000000000000     0.00000000000000
O     2.04391503391167     0.00000000000000     0.00000000000000
O     0.00000000000000     2.04391503391167     0.00000000000000
O     0.00000000000000     0.00000000000000     2.04391503391167