CRYSTAL
# Primitive lattice vectors in Angstrom
PRIMVEC
 2.88827619272906 0.00000000000000 1.66754703736611
 0.96275873090969 2.72309290909118 1.66754703736611
 0.00000000000000 0.00000000000000 3.33509407473222
# Cartesian coordinates in Angstrom.
PRIMCOORD
 2 1
Np     0.00000000000000     0.00000000000000     0.00000000000000
O     1.92551746181938     1.36154645454559     3.33509407473222