CRYSTAL
# Primitive lattice vectors in Angstrom
PRIMVEC
 5.23509266482818 0.00000000000000 0.00000000000000
 -0.00000000000000 5.23509266482818 0.00000000000000
 0.00000000000000 0.00000000000000 5.23509266482818
# Cartesian coordinates in Angstrom.
PRIMCOORD
 14 1
Np     0.00000000000000     0.00000000000000     0.00000000000000
Np     2.61754633241409     2.61754633241409     0.00000000000000
Np     2.61754633241409     0.00000000000000     2.61754633241409
Np     0.00000000000000     2.61754633241409     2.61754633241409
O     2.61754633241409     0.00000000000000     0.00000000000000
O     0.00000000000000     2.61754633241409     0.00000000000000
O     0.00000000000000     0.00000000000000     2.61754633241409
O     2.61754633241409     2.61754633241409     2.61754633241409
O     3.92631949862113     3.92631949862113     1.30877316620704
O     3.92631949862113     1.30877316620704     3.92631949862113
O     1.30877316620704     3.92631949862113     3.92631949862113
O     3.92631949862113     1.30877316620704     1.30877316620704
O     1.30877316620704     3.92631949862113     1.30877316620704
O     1.30877316620704     1.30877316620704     3.92631949862113