CRYSTAL
# Primitive lattice vectors in Angstrom
PRIMVEC
 3.45497912514338 0.00000000000000 1.99473312794607
 1.15165970838112 3.25738555766246 1.99473312794607
 0.00000000000000 0.00000000000000 3.98946625589214
# Cartesian coordinates in Angstrom.
PRIMCOORD
 3 1
Np     1.15165970838112     0.81434638941561     1.99473312794607
Np     3.45497912514338     2.44303916824685     5.98419938383821
O     0.00000000000000     0.00000000000000     0.00000000000000