CRYSTAL
# Primitive lattice vectors in Angstrom
PRIMVEC
 3.22607237306535 0.00000000000000 1.86257375301449
 1.07535745768845 3.04157020212412 1.86257375301449
 0.00000000000000 0.00000000000000 3.72514750602899
# Cartesian coordinates in Angstrom.
PRIMCOORD
 3 1
Np     0.00000000000000     0.00000000000000     0.00000000000000
O     1.07535745768845     0.76039255053103     1.86257375301449
O     3.22607237306535     2.28117765159309     5.58772125904349