CRYSTAL
# Primitive lattice vectors in Angstrom
PRIMVEC
 5.20579516126012 0.00000000000000 0.00000000000000
 -0.00000000000000 5.20579516126012 0.00000000000000
 0.00000000000000 0.00000000000000 5.20579516126012
# Cartesian coordinates in Angstrom.
PRIMCOORD
 10 1
Np     1.30144879031503     1.30144879031503     1.30144879031503
Np     3.90434637094509     3.90434637094509     1.30144879031503
Np     3.90434637094509     1.30144879031503     3.90434637094509
Np     1.30144879031503     3.90434637094509     3.90434637094509
O     2.60289758063007     0.00000000000000     0.00000000000000
O     0.00000000000000     2.60289758063007     0.00000000000000
O     0.00000000000000     0.00000000000000     2.60289758063007
O     2.60289758063007     2.60289758063007     0.00000000000000
O     2.60289758063007     0.00000000000000     2.60289758063007
O     0.00000000000000     2.60289758063007     2.60289758063007