CRYSTAL
# Primitive lattice vectors in Angstrom
PRIMVEC
 2.86566739870408 0.00000000000000 1.65449384404973
 0.95522246623469 2.70177713366515 1.65449384404973
 0.00000000000000 0.00000000000000 3.30898768809947
# Cartesian coordinates in Angstrom.
PRIMCOORD
 3 1
O     0.95522246623469     0.67544428341629     1.65449384404973
O     2.86566739870408     2.02633285024887     4.96348153214920
O     0.00000000000000     0.00000000000000     0.00000000000000