CRYSTAL
# Primitive lattice vectors in Angstrom
PRIMVEC
 3.79320273189144 0.00000000000000 0.00000000000000
 -0.00000000000000 3.79320273189144 0.00000000000000
 0.00000000000000 0.00000000000000 3.79320273189144
# Cartesian coordinates in Angstrom.
PRIMCOORD
 14 1
O     0.00000000000000     0.00000000000000     0.00000000000000
O     1.89660136594572     1.89660136594572     0.00000000000000
O     1.89660136594572     0.00000000000000     1.89660136594572
O     0.00000000000000     1.89660136594572     1.89660136594572
O     1.89660136594572     0.00000000000000     0.00000000000000
O     0.00000000000000     1.89660136594572     0.00000000000000
O     0.00000000000000     0.00000000000000     1.89660136594572
O     1.89660136594572     1.89660136594572     1.89660136594572
O     2.84490204891858     2.84490204891858     0.94830068297286
O     2.84490204891858     0.94830068297286     2.84490204891858
O     0.94830068297286     2.84490204891858     2.84490204891858
O     2.84490204891858     0.94830068297286     0.94830068297286
O     0.94830068297286     2.84490204891858     0.94830068297286
O     0.94830068297286     0.94830068297286     2.84490204891858