CRYSTAL
# Primitive lattice vectors in Angstrom
PRIMVEC
 4.77913596842877 0.00000000000000 0.00000000000000
 -0.00000000000000 4.77913596842877 0.00000000000000
 0.00000000000000 0.00000000000000 4.77913596842877
# Cartesian coordinates in Angstrom.
PRIMCOORD
 14 1
O     0.00000000000000     0.00000000000000     0.00000000000000
O     2.38956798421439     2.38956798421439     0.00000000000000
O     2.38956798421439     0.00000000000000     2.38956798421439
O     0.00000000000000     2.38956798421439     2.38956798421439
O     2.38956798421439     0.00000000000000     0.00000000000000
O     0.00000000000000     2.38956798421439     0.00000000000000
O     0.00000000000000     0.00000000000000     2.38956798421439
O     2.38956798421439     2.38956798421439     2.38956798421439
O     3.58435197632158     3.58435197632158     1.19478399210719
O     3.58435197632158     1.19478399210719     3.58435197632158
O     1.19478399210719     3.58435197632158     3.58435197632158
O     3.58435197632158     1.19478399210719     1.19478399210719
O     1.19478399210719     3.58435197632158     1.19478399210719
O     1.19478399210719     1.19478399210719     3.58435197632158