CRYSTAL
# Primitive lattice vectors in Angstrom
PRIMVEC
 4.49960465867539 0.00000000000000 0.00000000000000
 -0.00000000000000 4.49960465867539 0.00000000000000
 0.00000000000000 0.00000000000000 4.49960465867539
# Cartesian coordinates in Angstrom.
PRIMCOORD
 10 1
O     1.12490116466884     1.12490116466884     1.12490116466884
O     3.37470349400654     3.37470349400654     1.12490116466884
O     3.37470349400654     1.12490116466884     3.37470349400654
O     1.12490116466884     3.37470349400654     3.37470349400654
O     2.24980232933770     0.00000000000000     0.00000000000000
O     0.00000000000000     2.24980232933770     0.00000000000000
O     0.00000000000000     0.00000000000000     2.24980232933770
O     2.24980232933770     2.24980232933770     0.00000000000000
O     2.24980232933770     0.00000000000000     2.24980232933770
O     0.00000000000000     2.24980232933770     2.24980232933770