CRYSTAL
# Primitive lattice vectors in Angstrom
PRIMVEC
 2.86566739970490 0.00000000000000 1.65449384462756
 0.95522246656830 2.70177713460874 1.65449384462756
 0.00000000000000 0.00000000000000 3.30898768925512
# Cartesian coordinates in Angstrom.
PRIMCOORD
 3 1
O     0.00000000000000     0.00000000000000     0.00000000000000
O     0.95522246656830     0.67544428365219     1.65449384462756
O     2.86566739970490     2.02633285095656     4.96348153388268