CRYSTAL
# Primitive lattice vectors in Angstrom
PRIMVEC
 1.90698774045828 0.00000000000000 1.10099988529490
 0.63566258015276 1.79792528389022 1.10099988529490
 0.00000000000000 0.00000000000000 2.20199977058981
# Cartesian coordinates in Angstrom.
PRIMCOORD
 2 1
O     0.00000000000000     0.00000000000000     0.00000000000000
O     1.27132516030552     0.89896264194511     2.20199977058981