CRYSTAL
# Primitive lattice vectors in Angstrom
PRIMVEC
 3.48246686618092 0.00000000000000 0.00000000000000
 -0.00000000000000 3.48246686618092 0.00000000000000
 0.00000000000000 0.00000000000000 3.48246686618092
# Cartesian coordinates in Angstrom.
PRIMCOORD
 4 1
O     0.00000000000000     0.00000000000000     0.00000000000000
O     1.74123343309046     0.00000000000000     0.00000000000000
O     0.00000000000000     1.74123343309046     0.00000000000000
O     0.00000000000000     0.00000000000000     1.74123343309046