CRYSTAL
# Primitive lattice vectors in Angstrom
PRIMVEC
 2.40265399609485 0.00000000000000 1.38717293141489
 0.80088466536495 2.26524391131150 1.38717293141489
 0.00000000000000 0.00000000000000 2.77434586282978
# Cartesian coordinates in Angstrom.
PRIMCOORD
 2 1
O     0.00000000000000     0.00000000000000     0.00000000000000
O     1.60176933072990     1.13262195565575     2.77434586282978