CRYSTAL
# Primitive lattice vectors in Angstrom
PRIMVEC
 3.27170329832684 0.00000000000000 1.88891877999759
 1.09056776610894 3.08459145103640 1.88891877999759
 0.00000000000000 0.00000000000000 3.77783755999517
# Cartesian coordinates in Angstrom.
PRIMCOORD
 3 1
Os     1.09056776610894     0.77114786275910     1.88891877999759
Os     3.27170329832684     2.31344358827730     5.66675633999276
O     0.00000000000000     0.00000000000000     0.00000000000000