CRYSTAL
# Primitive lattice vectors in Angstrom
PRIMVEC
 4.95187235950483 0.00000000000000 0.00000000000000
 -0.00000000000000 4.95187235950483 0.00000000000000
 0.00000000000000 0.00000000000000 4.95187235950483
# Cartesian coordinates in Angstrom.
PRIMCOORD
 14 1
Os     0.00000000000000     0.00000000000000     0.00000000000000
Os     2.47593617975241     2.47593617975241     0.00000000000000
Os     2.47593617975241     0.00000000000000     2.47593617975241
Os     0.00000000000000     2.47593617975241     2.47593617975241
O     2.47593617975241     0.00000000000000     0.00000000000000
O     0.00000000000000     2.47593617975241     0.00000000000000
O     0.00000000000000     0.00000000000000     2.47593617975241
O     2.47593617975241     2.47593617975241     2.47593617975241
O     3.71390426962862     3.71390426962862     1.23796808987621
O     3.71390426962862     1.23796808987621     3.71390426962862
O     1.23796808987621     3.71390426962862     3.71390426962862
O     3.71390426962862     1.23796808987621     1.23796808987621
O     1.23796808987621     3.71390426962862     1.23796808987621
O     1.23796808987621     1.23796808987621     3.71390426962862