CRYSTAL
# Primitive lattice vectors in Angstrom
PRIMVEC
 2.70544951663833 0.00000000000000 1.56199200671008
 0.90181650554611 2.55072226583044 1.56199200671008
 0.00000000000000 0.00000000000000 3.12398401342017
# Cartesian coordinates in Angstrom.
PRIMCOORD
 2 1
Os     0.00000000000000     0.00000000000000     0.00000000000000
O     1.80363301109222     1.27536113291522     3.12398401342017