CRYSTAL
# Primitive lattice vectors in Angstrom
PRIMVEC
 3.72730232034307 0.00000000000000 0.00000000000000
 -0.00000000000000 3.72730232034307 0.00000000000000
 0.00000000000000 0.00000000000000 3.72730232034307
# Cartesian coordinates in Angstrom.
PRIMCOORD
 4 1
Os     0.00000000000000     0.00000000000000     0.00000000000000
O     1.86365116017153     0.00000000000000     0.00000000000000
O     0.00000000000000     1.86365116017153     0.00000000000000
O     0.00000000000000     0.00000000000000     1.86365116017153