CRYSTAL
# Primitive lattice vectors in Angstrom
PRIMVEC
 4.72668048232236 0.00000000000000 0.00000000000000
 -0.00000000000000 4.72668048232236 0.00000000000000
 0.00000000000000 0.00000000000000 4.72668048232236
# Cartesian coordinates in Angstrom.
PRIMCOORD
 10 1
Os     1.18167012058059     1.18167012058059     1.18167012058059
Os     3.54501036174177     3.54501036174177     1.18167012058059
Os     3.54501036174177     1.18167012058059     3.54501036174177
Os     1.18167012058059     3.54501036174177     3.54501036174177
O     2.36334024116119     0.00000000000000     0.00000000000000
O     0.00000000000000     2.36334024116119     0.00000000000000
O     0.00000000000000     0.00000000000000     2.36334024116119
O     2.36334024116119     2.36334024116119     0.00000000000000
O     2.36334024116119     0.00000000000000     2.36334024116119
O     0.00000000000000     2.36334024116119     2.36334024116119