CRYSTAL
# Primitive lattice vectors in Angstrom
PRIMVEC
 2.94546622033523 0.00000000000000 1.70056571519949
 0.98182207344507 2.77701218420660 1.70056571519949
 0.00000000000000 0.00000000000000 3.40113143039898
# Cartesian coordinates in Angstrom.
PRIMCOORD
 3 1
Os     0.00000000000000     0.00000000000000     0.00000000000000
O     0.98182207344507     0.69425304605165     1.70056571519949
O     2.94546622033523     2.08275913815495     5.10169714559848