CRYSTAL
# Primitive lattice vectors in Angstrom
PRIMVEC
 4.98429544410748 0.00000000000000 0.00000000000000
 -0.00000000000000 4.98429544410748 0.00000000000000
 0.00000000000000 0.00000000000000 4.98429544410748
# Cartesian coordinates in Angstrom.
PRIMCOORD
 14 1
P     0.00000000000000     0.00000000000000     0.00000000000000
P     2.49214772205374     2.49214772205374     0.00000000000000
P     2.49214772205374     0.00000000000000     2.49214772205374
P     0.00000000000000     2.49214772205374     2.49214772205374
O     2.49214772205374     0.00000000000000     0.00000000000000
O     0.00000000000000     2.49214772205374     0.00000000000000
O     0.00000000000000     0.00000000000000     2.49214772205374
O     2.49214772205374     2.49214772205374     2.49214772205374
O     3.73822158308061     3.73822158308061     1.24607386102687
O     3.73822158308061     1.24607386102687     3.73822158308061
O     1.24607386102687     3.73822158308061     3.73822158308061
O     3.73822158308061     1.24607386102687     1.24607386102687
O     1.24607386102687     3.73822158308061     1.24607386102687
O     1.24607386102687     1.24607386102687     3.73822158308061