CRYSTAL
# Primitive lattice vectors in Angstrom
PRIMVEC
 4.76785618381295 0.00000000000000 0.00000000000000
 -0.00000000000000 4.76785618381295 0.00000000000000
 0.00000000000000 0.00000000000000 4.76785618381295
# Cartesian coordinates in Angstrom.
PRIMCOORD
 10 1
P     1.19196404595324     1.19196404595324     1.19196404595324
P     3.57589213785972     3.57589213785972     1.19196404595324
P     3.57589213785972     1.19196404595324     3.57589213785972
P     1.19196404595324     3.57589213785972     3.57589213785972
O     2.38392809190648     0.00000000000000     0.00000000000000
O     0.00000000000000     2.38392809190648     0.00000000000000
O     0.00000000000000     0.00000000000000     2.38392809190648
O     2.38392809190648     2.38392809190648     0.00000000000000
O     2.38392809190648     0.00000000000000     2.38392809190648
O     0.00000000000000     2.38392809190648     2.38392809190648