CRYSTAL
# Primitive lattice vectors in Angstrom
PRIMVEC
 3.27460030792658 0.00000000000000 1.89059136926984
 1.09153343597552 3.08732277788058 1.89059136926984
 0.00000000000000 0.00000000000000 3.78118273853968
# Cartesian coordinates in Angstrom.
PRIMCOORD
 3 1
P     1.09153343597552     0.77183069447014     1.89059136926984
P     3.27460030792658     2.31549208341044     5.67177410780952
O     0.00000000000000     0.00000000000000     0.00000000000000