CRYSTAL
# Primitive lattice vectors in Angstrom
PRIMVEC
 2.78205654510702 0.00000000000000 1.60622109521830
 0.92735218170234 2.62294806491946 1.60622109521830
 0.00000000000000 0.00000000000000 3.21244219043659
# Cartesian coordinates in Angstrom.
PRIMCOORD
 2 1
P     0.00000000000000     0.00000000000000     0.00000000000000
O     1.85470436340468     1.31147403245972     3.21244219043659