CRYSTAL
# Primitive lattice vectors in Angstrom
PRIMVEC
 3.30947001775930 0.00000000000000 0.00000000000000
 -0.00000000000000 3.30947001775930 0.00000000000000
 0.00000000000000 0.00000000000000 3.30947001775930
# Cartesian coordinates in Angstrom.
PRIMCOORD
 4 1
P     0.00000000000000     0.00000000000000     0.00000000000000
O     1.65473500887964     0.00000000000000     0.00000000000000
O     0.00000000000000     1.65473500887964     0.00000000000000
O     0.00000000000000     0.00000000000000     1.65473500887964