CRYSTAL
# Primitive lattice vectors in Angstrom
PRIMVEC
 2.88617575224149 0.00000000000000 1.66633434748519
 0.96205858408049 2.72111259480819 1.66633434748519
 0.00000000000000 0.00000000000000 3.33266869497038
# Cartesian coordinates in Angstrom.
PRIMCOORD
 3 1
P     0.00000000000000     0.00000000000000     0.00000000000000
O     0.96205858408049     0.68027814870205     1.66633434748519
O     2.88617575224149     2.04083444610614     4.99900304245558