CRYSTAL
# Primitive lattice vectors in Angstrom
PRIMVEC
 4.21607301772965 0.00000000000000 0.00000000000000
 -0.00000000000000 4.21607301772965 0.00000000000000
 0.00000000000000 0.00000000000000 4.21607301772965
# Cartesian coordinates in Angstrom.
PRIMCOORD
 4 1
Pa     0.00000000000000     0.00000000000000     0.00000000000000
O     2.10803650886482     0.00000000000000     0.00000000000000
O     0.00000000000000     2.10803650886482     0.00000000000000
O     0.00000000000000     0.00000000000000     2.10803650886482