CRYSTAL
# Primitive lattice vectors in Angstrom
PRIMVEC
 5.33635854461138 0.00000000000000 0.00000000000000
 -0.00000000000000 5.33635854461138 0.00000000000000
 0.00000000000000 0.00000000000000 5.33635854461138
# Cartesian coordinates in Angstrom.
PRIMCOORD
 10 1
Pa     1.33408963615284     1.33408963615284     1.33408963615284
Pa     4.00226890845854     4.00226890845854     1.33408963615284
Pa     4.00226890845854     1.33408963615284     4.00226890845854
Pa     1.33408963615284     4.00226890845854     4.00226890845854
O     2.66817927230569     0.00000000000000     0.00000000000000
O     0.00000000000000     2.66817927230569     0.00000000000000
O     0.00000000000000     0.00000000000000     2.66817927230569
O     2.66817927230569     2.66817927230569     0.00000000000000
O     2.66817927230569     0.00000000000000     2.66817927230569
O     0.00000000000000     2.66817927230569     2.66817927230569