CRYSTAL
# Primitive lattice vectors in Angstrom
PRIMVEC
 2.98532538156486 0.00000000000000 1.72357841266509
 0.99510846052162 2.81459176180378 1.72357841266509
 0.00000000000000 0.00000000000000 3.44715682533019
# Cartesian coordinates in Angstrom.
PRIMCOORD
 2 1
Pa     0.00000000000000     0.00000000000000     0.00000000000000
O     1.99021692104324     1.40729588090188     3.44715682533019