CRYSTAL
# Primitive lattice vectors in Angstrom
PRIMVEC
 3.30304465219766 0.00000000000000 1.90701371909167
 1.10101488406588 3.11414036284123 1.90701371909167
 0.00000000000000 0.00000000000000 3.81402743818334
# Cartesian coordinates in Angstrom.
PRIMCOORD
 3 1
Pa     0.00000000000000     0.00000000000000     0.00000000000000
O     1.10101488406588     0.77853509071031     1.90701371909167
O     3.30304465219766     2.33560527213093     5.72104115727502