CRYSTAL
# Primitive lattice vectors in Angstrom
PRIMVEC
 5.36219174124515 0.00000000000000 0.00000000000000
 -0.00000000000000 5.36219174124515 0.00000000000000
 0.00000000000000 0.00000000000000 5.36219174124515
# Cartesian coordinates in Angstrom.
PRIMCOORD
 14 1
Pa     0.00000000000000     0.00000000000000     0.00000000000000
Pa     2.68109587062257     2.68109587062257     0.00000000000000
Pa     2.68109587062257     0.00000000000000     2.68109587062257
Pa     0.00000000000000     2.68109587062257     2.68109587062257
O     2.68109587062257     0.00000000000000     0.00000000000000
O     0.00000000000000     2.68109587062257     0.00000000000000
O     0.00000000000000     0.00000000000000     2.68109587062257
O     2.68109587062257     2.68109587062257     2.68109587062257
O     4.02164380593386     4.02164380593386     1.34054793531129
O     4.02164380593386     1.34054793531129     4.02164380593386
O     1.34054793531129     4.02164380593386     4.02164380593386
O     4.02164380593386     1.34054793531129     1.34054793531129
O     1.34054793531129     4.02164380593386     1.34054793531129
O     1.34054793531129     1.34054793531129     4.02164380593386