CRYSTAL
# Primitive lattice vectors in Angstrom
PRIMVEC
 3.66219920272070 0.00000000000000 2.11437169551683
 1.22073306757356 3.45275452039970 2.11437169551683
 0.00000000000000 0.00000000000000 4.22874339103366
# Cartesian coordinates in Angstrom.
PRIMCOORD
 3 1
Pa     1.22073306757356     0.86318863009992     2.11437169551683
Pa     3.66219920272070     2.58956589029978     6.34311508655049
O     0.00000000000000     0.00000000000000     0.00000000000000