CRYSTAL
# Primitive lattice vectors in Angstrom
PRIMVEC
 5.49269505895356 0.00000000000000 0.00000000000000
 -0.00000000000000 5.49269505895356 0.00000000000000
 0.00000000000000 0.00000000000000 5.49269505895356
# Cartesian coordinates in Angstrom.
PRIMCOORD
 14 1
Pb     0.00000000000000     0.00000000000000     0.00000000000000
Pb     2.74634752947678     2.74634752947678     0.00000000000000
Pb     2.74634752947678     0.00000000000000     2.74634752947678
Pb     0.00000000000000     2.74634752947678     2.74634752947678
O     2.74634752947678     0.00000000000000     0.00000000000000
O     0.00000000000000     2.74634752947678     0.00000000000000
O     0.00000000000000     0.00000000000000     2.74634752947678
O     2.74634752947678     2.74634752947678     2.74634752947678
O     4.11952129421517     4.11952129421517     1.37317376473839
O     4.11952129421517     1.37317376473839     4.11952129421517
O     1.37317376473839     4.11952129421517     4.11952129421517
O     4.11952129421517     1.37317376473839     1.37317376473839
O     1.37317376473839     4.11952129421517     1.37317376473839
O     1.37317376473839     1.37317376473839     4.11952129421517