CRYSTAL
# Primitive lattice vectors in Angstrom
PRIMVEC
 5.47112913046427 0.00000000000000 0.00000000000000
 -0.00000000000000 5.47112913046427 0.00000000000000
 0.00000000000000 0.00000000000000 5.47112913046427
# Cartesian coordinates in Angstrom.
PRIMCOORD
 10 1
Pb     1.36778228261607     1.36778228261607     1.36778228261607
Pb     4.10334684784821     4.10334684784821     1.36778228261607
Pb     4.10334684784821     1.36778228261607     4.10334684784821
Pb     1.36778228261607     4.10334684784821     4.10334684784821
O     2.73556456523214     0.00000000000000     0.00000000000000
O     0.00000000000000     2.73556456523214     0.00000000000000
O     0.00000000000000     0.00000000000000     2.73556456523214
O     2.73556456523214     2.73556456523214     0.00000000000000
O     2.73556456523214     0.00000000000000     2.73556456523214
O     0.00000000000000     2.73556456523214     2.73556456523214