CRYSTAL
# Primitive lattice vectors in Angstrom
PRIMVEC
 4.22727416022331 0.00000000000000 0.00000000000000
 -0.00000000000000 4.22727416022331 0.00000000000000
 0.00000000000000 0.00000000000000 4.22727416022331
# Cartesian coordinates in Angstrom.
PRIMCOORD
 4 1
Pb     0.00000000000000     0.00000000000000     0.00000000000000
O     2.11363708011165     0.00000000000000     0.00000000000000
O     0.00000000000000     2.11363708011165     0.00000000000000
O     0.00000000000000     0.00000000000000     2.11363708011165