CRYSTAL
# Primitive lattice vectors in Angstrom
PRIMVEC
 3.93303146855366 0.00000000000000 2.27073677710073
 1.31101048951788 3.70809762937917 2.27073677710073
 0.00000000000000 0.00000000000000 4.54147355420145
# Cartesian coordinates in Angstrom.
PRIMCOORD
 3 1
Pb     1.31101048951788     0.92702440734479     2.27073677710073
Pb     3.93303146855366     2.78107322203438     6.81221033130218
O     0.00000000000000     0.00000000000000     0.00000000000000