CRYSTAL
# Primitive lattice vectors in Angstrom
PRIMVEC
 3.17154025593177 0.00000000000000 1.83108962050794
 1.05718008531059 2.99015682903397 1.83108962050794
 0.00000000000000 0.00000000000000 3.66217924101588
# Cartesian coordinates in Angstrom.
PRIMCOORD
 2 1
Pb     0.00000000000000     0.00000000000000     0.00000000000000
O     2.11436017062118     1.49507841451698     3.66217924101588