CRYSTAL
# Primitive lattice vectors in Angstrom
PRIMVEC
 3.26406960668918 0.00000000000000 1.88451146607567
 1.08802320222972 3.07739433753977 1.88451146607567
 0.00000000000000 0.00000000000000 3.76902293215134
# Cartesian coordinates in Angstrom.
PRIMCOORD
 3 1
Pb     0.00000000000000     0.00000000000000     0.00000000000000
O     1.08802320222972     0.76934858438494     1.88451146607567
O     3.26406960668918     2.30804575315483     5.65353439822702