CRYSTAL
# Primitive lattice vectors in Angstrom
PRIMVEC
 3.32040140209428 0.00000000000000 1.91703464331674
 1.10680046736476 3.13050446357625 1.91703464331674
 0.00000000000000 0.00000000000000 3.83406928663349
# Cartesian coordinates in Angstrom.
PRIMCOORD
 3 1
Pd     1.10680046736476     0.78262611589406     1.91703464331674
Pd     3.32040140209428     2.34787834768219     5.75110392995023
O     0.00000000000000     0.00000000000000     0.00000000000000