CRYSTAL
# Primitive lattice vectors in Angstrom
PRIMVEC
 4.83357745776913 0.00000000000000 0.00000000000000
 -0.00000000000000 4.83357745776913 0.00000000000000
 0.00000000000000 0.00000000000000 4.83357745776913
# Cartesian coordinates in Angstrom.
PRIMCOORD
 10 1
Pd     1.20839436444228     1.20839436444228     1.20839436444228
Pd     3.62518309332685     3.62518309332685     1.20839436444228
Pd     3.62518309332685     1.20839436444228     3.62518309332685
Pd     1.20839436444228     3.62518309332685     3.62518309332685
O     2.41678872888457     0.00000000000000     0.00000000000000
O     0.00000000000000     2.41678872888457     0.00000000000000
O     0.00000000000000     0.00000000000000     2.41678872888457
O     2.41678872888457     2.41678872888457     0.00000000000000
O     2.41678872888457     0.00000000000000     2.41678872888457
O     0.00000000000000     2.41678872888457     2.41678872888457