CRYSTAL
# Primitive lattice vectors in Angstrom
PRIMVEC
 2.73020031386859 0.00000000000000 1.57628188615363
 0.91006677128953 2.57405754124549 1.57628188615363
 0.00000000000000 0.00000000000000 3.15256377230726
# Cartesian coordinates in Angstrom.
PRIMCOORD
 2 1
Pd     0.00000000000000     0.00000000000000     0.00000000000000
O     1.82013354257906     1.28702877062274     3.15256377230726