CRYSTAL
# Primitive lattice vectors in Angstrom
PRIMVEC
 3.82707039547716 0.00000000000000 0.00000000000000
 -0.00000000000000 3.82707039547716 0.00000000000000
 0.00000000000000 0.00000000000000 3.82707039547716
# Cartesian coordinates in Angstrom.
PRIMCOORD
 4 1
Pd     0.00000000000000     0.00000000000000     0.00000000000000
O     1.91353519773857     0.00000000000000     0.00000000000000
O     0.00000000000000     1.91353519773857     0.00000000000000
O     0.00000000000000     0.00000000000000     1.91353519773857