CRYSTAL
# Primitive lattice vectors in Angstrom
PRIMVEC
 5.07685314873885 0.00000000000000 0.00000000000000
 -0.00000000000000 5.07685314873885 0.00000000000000
 0.00000000000000 0.00000000000000 5.07685314873885
# Cartesian coordinates in Angstrom.
PRIMCOORD
 14 1
Pd     0.00000000000000     0.00000000000000     0.00000000000000
Pd     2.53842657436943     2.53842657436943     0.00000000000000
Pd     2.53842657436943     0.00000000000000     2.53842657436943
Pd     0.00000000000000     2.53842657436943     2.53842657436943
O     2.53842657436943     0.00000000000000     0.00000000000000
O     0.00000000000000     2.53842657436943     0.00000000000000
O     0.00000000000000     0.00000000000000     2.53842657436943
O     2.53842657436943     2.53842657436943     2.53842657436943
O     3.80763986155414     3.80763986155414     1.26921328718471
O     3.80763986155414     1.26921328718471     3.80763986155414
O     1.26921328718471     3.80763986155414     3.80763986155414
O     3.80763986155414     1.26921328718471     1.26921328718471
O     1.26921328718471     3.80763986155414     1.26921328718471
O     1.26921328718471     1.26921328718471     3.80763986155414