CRYSTAL
# Primitive lattice vectors in Angstrom
PRIMVEC
 3.02284414503833 0.00000000000000 1.74523988085616
 1.00761471501277 2.84996479123554 1.74523988085616
 0.00000000000000 0.00000000000000 3.49047976171232
# Cartesian coordinates in Angstrom.
PRIMCOORD
 3 1
Pd     0.00000000000000     0.00000000000000     0.00000000000000
O     1.00761471501277     0.71249119780889     1.74523988085616
O     3.02284414503833     2.13747359342666     5.23571964256849