CRYSTAL
# Primitive lattice vectors in Angstrom
PRIMVEC
 2.93904486478909 0.00000000000000 1.69685834384636
 0.97968162159636 2.77095807213848 1.69685834384636
 0.00000000000000 0.00000000000000 3.39371668769273
# Cartesian coordinates in Angstrom.
PRIMCOORD
 2 1
Pm     0.00000000000000     0.00000000000000     0.00000000000000
O     1.95936324319272     1.38547903606924     3.39371668769273