CRYSTAL
# Primitive lattice vectors in Angstrom
PRIMVEC
 5.32087948408108 0.00000000000000 0.00000000000000
 -0.00000000000000 5.32087948408108 0.00000000000000
 0.00000000000000 0.00000000000000 5.32087948408108
# Cartesian coordinates in Angstrom.
PRIMCOORD
 14 1
Pm     0.00000000000000     0.00000000000000     0.00000000000000
Pm     2.66043974204054     2.66043974204054     0.00000000000000
Pm     2.66043974204054     0.00000000000000     2.66043974204054
Pm     0.00000000000000     2.66043974204054     2.66043974204054
O     2.66043974204054     0.00000000000000     0.00000000000000
O     0.00000000000000     2.66043974204054     0.00000000000000
O     0.00000000000000     0.00000000000000     2.66043974204054
O     2.66043974204054     2.66043974204054     2.66043974204054
O     3.99065961306081     3.99065961306081     1.33021987102027
O     3.99065961306081     1.33021987102027     3.99065961306081
O     1.33021987102027     3.99065961306081     3.99065961306081
O     3.99065961306081     1.33021987102027     1.33021987102027
O     1.33021987102027     3.99065961306081     1.33021987102027
O     1.33021987102027     1.33021987102027     3.99065961306081