CRYSTAL
# Primitive lattice vectors in Angstrom
PRIMVEC
 3.23669720245051 0.00000000000000 1.86870800112011
 1.07889906748350 3.05158738733371 1.86870800112011
 0.00000000000000 0.00000000000000 3.73741600224022
# Cartesian coordinates in Angstrom.
PRIMCOORD
 3 1
Pm     0.00000000000000     0.00000000000000     0.00000000000000
O     1.07889906748350     0.76289684683343     1.86870800112011
O     3.23669720245051     2.28869054050028     5.60612400336033