CRYSTAL
# Primitive lattice vectors in Angstrom
PRIMVEC
 4.09920180149703 0.00000000000000 0.00000000000000
 -0.00000000000000 4.09920180149703 0.00000000000000
 0.00000000000000 0.00000000000000 4.09920180149703
# Cartesian coordinates in Angstrom.
PRIMCOORD
 4 1
Pm     0.00000000000000     0.00000000000000     0.00000000000000
O     2.04960090074851     0.00000000000000     0.00000000000000
O     0.00000000000000     2.04960090074851     0.00000000000000
O     0.00000000000000     0.00000000000000     2.04960090074851