CRYSTAL
# Primitive lattice vectors in Angstrom
PRIMVEC
 3.49745052417617 0.00000000000000 2.01925400161051
 1.16581684139205 3.29742797667922 2.01925400161051
 0.00000000000000 0.00000000000000 4.03850800322102
# Cartesian coordinates in Angstrom.
PRIMCOORD
 3 1
Pm     1.16581684139205     0.82435699416980     2.01925400161051
Pm     3.49745052417617     2.47307098250942     6.05776200483153
O     0.00000000000000     0.00000000000000     0.00000000000000