CRYSTAL
# Primitive lattice vectors in Angstrom
PRIMVEC
 5.29205162590958 0.00000000000000 0.00000000000000
 -0.00000000000000 5.29205162590958 0.00000000000000
 0.00000000000000 0.00000000000000 5.29205162590958
# Cartesian coordinates in Angstrom.
PRIMCOORD
 10 1
Pm     1.32301290647739     1.32301290647739     1.32301290647739
Pm     3.96903871943219     3.96903871943219     1.32301290647739
Pm     3.96903871943219     1.32301290647739     3.96903871943219
Pm     1.32301290647739     3.96903871943219     3.96903871943219
O     2.64602581295479     0.00000000000000     0.00000000000000
O     0.00000000000000     2.64602581295479     0.00000000000000
O     0.00000000000000     0.00000000000000     2.64602581295479
O     2.64602581295479     2.64602581295479     0.00000000000000
O     2.64602581295479     0.00000000000000     2.64602581295479
O     0.00000000000000     2.64602581295479     2.64602581295479