CRYSTAL
# Primitive lattice vectors in Angstrom
PRIMVEC
 5.46999863306007 0.00000000000000 0.00000000000000
 -0.00000000000000 5.46999863306007 0.00000000000000
 0.00000000000000 0.00000000000000 5.46999863306007
# Cartesian coordinates in Angstrom.
PRIMCOORD
 14 1
Po     0.00000000000000     0.00000000000000     0.00000000000000
Po     2.73499931653004     2.73499931653004     0.00000000000000
Po     2.73499931653004     0.00000000000000     2.73499931653004
Po     0.00000000000000     2.73499931653004     2.73499931653004
O     2.73499931653004     0.00000000000000     0.00000000000000
O     0.00000000000000     2.73499931653004     0.00000000000000
O     0.00000000000000     0.00000000000000     2.73499931653004
O     2.73499931653004     2.73499931653004     2.73499931653004
O     4.10249897479505     4.10249897479505     1.36749965826502
O     4.10249897479505     1.36749965826502     4.10249897479505
O     1.36749965826502     4.10249897479505     4.10249897479505
O     4.10249897479505     1.36749965826502     1.36749965826502
O     1.36749965826502     4.10249897479505     1.36749965826502
O     1.36749965826502     1.36749965826502     4.10249897479505