CRYSTAL
# Primitive lattice vectors in Angstrom
PRIMVEC
 5.46234838164522 0.00000000000000 0.00000000000000
 -0.00000000000000 5.46234838164522 0.00000000000000
 0.00000000000000 0.00000000000000 5.46234838164522
# Cartesian coordinates in Angstrom.
PRIMCOORD
 10 1
Po     1.36558709541130     1.36558709541130     1.36558709541130
Po     4.09676128623392     4.09676128623392     1.36558709541130
Po     4.09676128623392     1.36558709541130     4.09676128623392
Po     1.36558709541130     4.09676128623392     4.09676128623392
O     2.73117419082262     0.00000000000000     0.00000000000000
O     0.00000000000000     2.73117419082262     0.00000000000000
O     0.00000000000000     0.00000000000000     2.73117419082262
O     2.73117419082262     2.73117419082262     0.00000000000000
O     2.73117419082262     0.00000000000000     2.73117419082262
O     0.00000000000000     2.73117419082262     2.73117419082262