CRYSTAL
# Primitive lattice vectors in Angstrom
PRIMVEC
 3.94567954115849 0.00000000000000 2.27803914522386
 1.31522651371949 3.72002234658959 2.27803914522386
 0.00000000000000 0.00000000000000 4.55607829044771
# Cartesian coordinates in Angstrom.
PRIMCOORD
 3 1
Po     1.31522651371949     0.93000558664740     2.27803914522386
Po     3.94567954115849     2.79001675994220     6.83411743567157
O     0.00000000000000     0.00000000000000     0.00000000000000