CRYSTAL
# Primitive lattice vectors in Angstrom
PRIMVEC
 3.33539850222386 0.00000000000000 1.92569322311362
 1.11179950074128 3.14464386517593 1.92569322311362
 0.00000000000000 0.00000000000000 3.85138644622724
# Cartesian coordinates in Angstrom.
PRIMCOORD
 3 1
Po     0.00000000000000     0.00000000000000     0.00000000000000
O     1.11179950074128     0.78616096629398     1.92569322311362
O     3.33539850222386     2.35848289888195     5.77707966934087