CRYSTAL
# Primitive lattice vectors in Angstrom
PRIMVEC
 3.20301168910325 0.00000000000000 1.84925966092128
 1.06767056303442 3.01982838077959 1.84925966092128
 0.00000000000000 0.00000000000000 3.69851932184256
# Cartesian coordinates in Angstrom.
PRIMCOORD
 2 1
Po     0.00000000000000     0.00000000000000     0.00000000000000
O     2.13534112606884     1.50991419038979     3.69851932184256