CRYSTAL
# Primitive lattice vectors in Angstrom
PRIMVEC
 4.08596102277584 0.00000000000000 0.00000000000000
 -0.00000000000000 4.08596102277584 0.00000000000000
 0.00000000000000 0.00000000000000 4.08596102277584
# Cartesian coordinates in Angstrom.
PRIMCOORD
 4 1
Po     0.00000000000000     0.00000000000000     0.00000000000000
O     2.04298051138791     0.00000000000000     0.00000000000000
O     0.00000000000000     2.04298051138791     0.00000000000000
O     0.00000000000000     0.00000000000000     2.04298051138791