CRYSTAL
# Primitive lattice vectors in Angstrom
PRIMVEC
 3.56242742635711 0.00000000000000 2.05676843357578
 1.18747580878570 3.35868878754940 2.05676843357578
 0.00000000000000 0.00000000000000 4.11353686715157
# Cartesian coordinates in Angstrom.
PRIMCOORD
 3 1
Pr     1.18747580878570     0.83967219688735     2.05676843357578
Pr     3.56242742635711     2.51901659066205     6.17030530072735
O     0.00000000000000     0.00000000000000     0.00000000000000