CRYSTAL
# Primitive lattice vectors in Angstrom
PRIMVEC
 2.97790937067180 0.00000000000000 1.71929677677967
 0.99263645689060 2.80759987968133 1.71929677677967
 0.00000000000000 0.00000000000000 3.43859355355934
# Cartesian coordinates in Angstrom.
PRIMCOORD
 2 1
Pr     0.00000000000000     0.00000000000000     0.00000000000000
O     1.98527291378120     1.40379993984066     3.43859355355934