CRYSTAL
# Primitive lattice vectors in Angstrom
PRIMVEC
 5.35952358603321 0.00000000000000 0.00000000000000
 -0.00000000000000 5.35952358603321 0.00000000000000
 0.00000000000000 0.00000000000000 5.35952358603321
# Cartesian coordinates in Angstrom.
PRIMCOORD
 14 1
Pr     0.00000000000000     0.00000000000000     0.00000000000000
Pr     2.67976179301660     2.67976179301660     0.00000000000000
Pr     2.67976179301660     0.00000000000000     2.67976179301660
Pr     0.00000000000000     2.67976179301660     2.67976179301660
O     2.67976179301660     0.00000000000000     0.00000000000000
O     0.00000000000000     2.67976179301660     0.00000000000000
O     0.00000000000000     0.00000000000000     2.67976179301660
O     2.67976179301660     2.67976179301660     2.67976179301660
O     4.01964268952491     4.01964268952491     1.33988089650830
O     4.01964268952491     1.33988089650830     4.01964268952491
O     1.33988089650830     4.01964268952491     4.01964268952491
O     4.01964268952491     1.33988089650830     1.33988089650830
O     1.33988089650830     4.01964268952491     1.33988089650830
O     1.33988089650830     1.33988089650830     4.01964268952491