CRYSTAL
# Primitive lattice vectors in Angstrom
PRIMVEC
 4.17941863021330 0.00000000000000 0.00000000000000
 -0.00000000000000 4.17941863021330 0.00000000000000
 0.00000000000000 0.00000000000000 4.17941863021330
# Cartesian coordinates in Angstrom.
PRIMCOORD
 4 1
Pr     0.00000000000000     0.00000000000000     0.00000000000000
O     2.08970931510664     0.00000000000000     0.00000000000000
O     0.00000000000000     2.08970931510664     0.00000000000000
O     0.00000000000000     0.00000000000000     2.08970931510664