CRYSTAL
# Primitive lattice vectors in Angstrom
PRIMVEC
 5.35205103158683 0.00000000000000 0.00000000000000
 -0.00000000000000 5.35205103158683 0.00000000000000
 0.00000000000000 0.00000000000000 5.35205103158683
# Cartesian coordinates in Angstrom.
PRIMCOORD
 10 1
Pr     1.33801275789671     1.33801275789671     1.33801275789671
Pr     4.01403827369013     4.01403827369013     1.33801275789671
Pr     4.01403827369013     1.33801275789671     4.01403827369013
Pr     1.33801275789671     4.01403827369013     4.01403827369013
O     2.67602551579342     0.00000000000000     0.00000000000000
O     0.00000000000000     2.67602551579342     0.00000000000000
O     0.00000000000000     0.00000000000000     2.67602551579342
O     2.67602551579342     2.67602551579342     0.00000000000000
O     2.67602551579342     0.00000000000000     2.67602551579342
O     0.00000000000000     2.67602551579342     2.67602551579342