CRYSTAL
# Primitive lattice vectors in Angstrom
PRIMVEC
 3.27612958215126 0.00000000000000 1.89147429615512
 1.09204319405042 3.08876459144668 1.89147429615512
 0.00000000000000 0.00000000000000 3.78294859231025
# Cartesian coordinates in Angstrom.
PRIMCOORD
 3 1
Pr     0.00000000000000     0.00000000000000     0.00000000000000
O     1.09204319405042     0.77219114786167     1.89147429615512
O     3.27612958215126     2.31657344358501     5.67442288846538