CRYSTAL
# Primitive lattice vectors in Angstrom
PRIMVEC
 2.78454966579911 0.00000000000000 1.60766049912100
 0.92818322193304 2.62529860164972 1.60766049912100
 0.00000000000000 0.00000000000000 3.21532099824200
# Cartesian coordinates in Angstrom.
PRIMCOORD
 2 1
Pt     0.00000000000000     0.00000000000000     0.00000000000000
O     1.85636644386607     1.31264930082485     3.21532099824200