CRYSTAL
# Primitive lattice vectors in Angstrom
PRIMVEC
 4.88373849841352 0.00000000000000 0.00000000000000
 -0.00000000000000 4.88373849841352 0.00000000000000
 0.00000000000000 0.00000000000000 4.88373849841352
# Cartesian coordinates in Angstrom.
PRIMCOORD
 10 1
Pt     1.22093462460338     1.22093462460338     1.22093462460338
Pt     3.66280387381014     3.66280387381014     1.22093462460338
Pt     3.66280387381014     1.22093462460338     3.66280387381014
Pt     1.22093462460338     3.66280387381014     3.66280387381014
O     2.44186924920676     0.00000000000000     0.00000000000000
O     0.00000000000000     2.44186924920676     0.00000000000000
O     0.00000000000000     0.00000000000000     2.44186924920676
O     2.44186924920676     2.44186924920676     0.00000000000000
O     2.44186924920676     0.00000000000000     2.44186924920676
O     0.00000000000000     2.44186924920676     2.44186924920676