CRYSTAL
# Primitive lattice vectors in Angstrom
PRIMVEC
 3.05560188761134 0.00000000000000 1.76415257234874
 1.01853396253711 2.88084908711520 1.76415257234874
 0.00000000000000 0.00000000000000 3.52830514469747
# Cartesian coordinates in Angstrom.
PRIMCOORD
 3 1
Pt     0.00000000000000     0.00000000000000     0.00000000000000
O     1.01853396253711     0.72021227177880     1.76415257234874
O     3.05560188761134     2.16063681533640     5.29245771704622