CRYSTAL
# Primitive lattice vectors in Angstrom
PRIMVEC
 3.80923770317730 0.00000000000000 0.00000000000000
 -0.00000000000000 3.80923770317730 0.00000000000000
 0.00000000000000 0.00000000000000 3.80923770317730
# Cartesian coordinates in Angstrom.
PRIMCOORD
 4 1
Pt     0.00000000000000     0.00000000000000     0.00000000000000
O     1.90461885158865     0.00000000000000     0.00000000000000
O     0.00000000000000     1.90461885158865     0.00000000000000
O     0.00000000000000     0.00000000000000     1.90461885158865