CRYSTAL
# Primitive lattice vectors in Angstrom
PRIMVEC
 3.35718446466436 0.00000000000000 1.93827135439320
 1.11906148822145 3.16518386754439 1.93827135439320
 0.00000000000000 0.00000000000000 3.87654270878639
# Cartesian coordinates in Angstrom.
PRIMCOORD
 3 1
Pt     1.11906148822145     0.79129596688610     1.93827135439320
Pt     3.35718446466436     2.37388790065830     5.81481406317959
O     0.00000000000000     0.00000000000000     0.00000000000000