CRYSTAL
# Primitive lattice vectors in Angstrom
PRIMVEC
 5.09233768150204 0.00000000000000 0.00000000000000
 -0.00000000000000 5.09233768150204 0.00000000000000
 0.00000000000000 0.00000000000000 5.09233768150204
# Cartesian coordinates in Angstrom.
PRIMCOORD
 14 1
Pt     0.00000000000000     0.00000000000000     0.00000000000000
Pt     2.54616884075102     2.54616884075102     0.00000000000000
Pt     2.54616884075102     0.00000000000000     2.54616884075102
Pt     0.00000000000000     2.54616884075102     2.54616884075102
O     2.54616884075102     0.00000000000000     0.00000000000000
O     0.00000000000000     2.54616884075102     0.00000000000000
O     0.00000000000000     0.00000000000000     2.54616884075102
O     2.54616884075102     2.54616884075102     2.54616884075102
O     3.81925326112653     3.81925326112653     1.27308442037551
O     3.81925326112653     1.27308442037551     3.81925326112653
O     1.27308442037551     3.81925326112653     3.81925326112653
O     3.81925326112653     1.27308442037551     1.27308442037551
O     1.27308442037551     3.81925326112653     1.27308442037551
O     1.27308442037551     1.27308442037551     3.81925326112653