CRYSTAL
# Primitive lattice vectors in Angstrom
PRIMVEC
 2.86788576861723 0.00000000000000 1.65577462051625
 0.95596192287241 2.70386863287685 1.65577462051625
 0.00000000000000 0.00000000000000 3.31154924103251
# Cartesian coordinates in Angstrom.
PRIMCOORD
 2 1
Pu     0.00000000000000     0.00000000000000     0.00000000000000
O     1.91192384574482     1.35193431643842     3.31154924103251