CRYSTAL
# Primitive lattice vectors in Angstrom
PRIMVEC
 4.05591544924536 0.00000000000000 0.00000000000000
 -0.00000000000000 4.05591544924536 0.00000000000000
 0.00000000000000 0.00000000000000 4.05591544924536
# Cartesian coordinates in Angstrom.
PRIMCOORD
 4 1
Pu     0.00000000000000     0.00000000000000     0.00000000000000
O     2.02795772462267     0.00000000000000     0.00000000000000
O     0.00000000000000     2.02795772462267     0.00000000000000
O     0.00000000000000     0.00000000000000     2.02795772462267