CRYSTAL
# Primitive lattice vectors in Angstrom
PRIMVEC
 5.17780204429929 0.00000000000000 0.00000000000000
 -0.00000000000000 5.17780204429929 0.00000000000000
 0.00000000000000 0.00000000000000 5.17780204429929
# Cartesian coordinates in Angstrom.
PRIMCOORD
 10 1
Pu     1.29445051107482     1.29445051107482     1.29445051107482
Pu     3.88335153322447     3.88335153322447     1.29445051107482
Pu     3.88335153322447     1.29445051107482     3.88335153322447
Pu     1.29445051107482     3.88335153322447     3.88335153322447
O     2.58890102214965     0.00000000000000     0.00000000000000
O     0.00000000000000     2.58890102214965     0.00000000000000
O     0.00000000000000     0.00000000000000     2.58890102214965
O     2.58890102214965     2.58890102214965     0.00000000000000
O     2.58890102214965     0.00000000000000     2.58890102214965
O     0.00000000000000     2.58890102214965     2.58890102214965