CRYSTAL
# Primitive lattice vectors in Angstrom
PRIMVEC
 3.41709465489840 0.00000000000000 1.97286051885203
 1.13903155163280 3.22166773657995 1.97286051885203
 0.00000000000000 0.00000000000000 3.94572103770405
# Cartesian coordinates in Angstrom.
PRIMCOORD
 3 1
Pu     1.13903155163280     0.80541693414499     1.97286051885203
Pu     3.41709465489840     2.41625080243497     5.91858155655608
O     0.00000000000000     0.00000000000000     0.00000000000000