CRYSTAL
# Primitive lattice vectors in Angstrom
PRIMVEC
 5.21513086559319 0.00000000000000 0.00000000000000
 -0.00000000000000 5.21513086559319 0.00000000000000
 0.00000000000000 0.00000000000000 5.21513086559319
# Cartesian coordinates in Angstrom.
PRIMCOORD
 14 1
Pu     0.00000000000000     0.00000000000000     0.00000000000000
Pu     2.60756543279660     2.60756543279660     0.00000000000000
Pu     2.60756543279660     0.00000000000000     2.60756543279660
Pu     0.00000000000000     2.60756543279660     2.60756543279660
O     2.60756543279660     0.00000000000000     0.00000000000000
O     0.00000000000000     2.60756543279660     0.00000000000000
O     0.00000000000000     0.00000000000000     2.60756543279660
O     2.60756543279660     2.60756543279660     2.60756543279660
O     3.91134814919489     3.91134814919489     1.30378271639830
O     3.91134814919489     1.30378271639830     3.91134814919489
O     1.30378271639830     3.91134814919489     3.91134814919489
O     3.91134814919489     1.30378271639830     1.30378271639830
O     1.30378271639830     3.91134814919489     1.30378271639830
O     1.30378271639830     1.30378271639830     3.91134814919489