CRYSTAL
# Primitive lattice vectors in Angstrom
PRIMVEC
 3.20490150771100 0.00000000000000 1.85035074820318
 1.06830050257033 3.02161011884992 1.85035074820318
 0.00000000000000 0.00000000000000 3.70070149640636
# Cartesian coordinates in Angstrom.
PRIMCOORD
 3 1
Pu     0.00000000000000     0.00000000000000     0.00000000000000
O     1.06830050257033     0.75540252971248     1.85035074820318
O     3.20490150771100     2.26620758913744     5.55105224460955