CRYSTAL
# Primitive lattice vectors in Angstrom
PRIMVEC
 6.07262280467974 0.00000000000000 0.00000000000000
 -0.00000000000000 6.07262280467974 0.00000000000000
 0.00000000000000 0.00000000000000 6.07262280467974
# Cartesian coordinates in Angstrom.
PRIMCOORD
 14 1
Ra     0.00000000000000     0.00000000000000     0.00000000000000
Ra     3.03631140233987     3.03631140233987     0.00000000000000
Ra     3.03631140233987     0.00000000000000     3.03631140233987
Ra     0.00000000000000     3.03631140233987     3.03631140233987
O     3.03631140233987     0.00000000000000     0.00000000000000
O     0.00000000000000     3.03631140233987     0.00000000000000
O     0.00000000000000     0.00000000000000     3.03631140233987
O     3.03631140233987     3.03631140233987     3.03631140233987
O     4.55446710350980     4.55446710350980     1.51815570116993
O     4.55446710350980     1.51815570116993     4.55446710350980
O     1.51815570116993     4.55446710350980     4.55446710350980
O     4.55446710350980     1.51815570116993     1.51815570116993
O     1.51815570116993     4.55446710350980     1.51815570116993
O     1.51815570116993     1.51815570116993     4.55446710350980