CRYSTAL
# Primitive lattice vectors in Angstrom
PRIMVEC
 3.47339762883054 0.00000000000000 2.00536705600792
 1.15779920961018 3.27475068947114 2.00536705600792
 0.00000000000000 0.00000000000000 4.01073411201584
# Cartesian coordinates in Angstrom.
PRIMCOORD
 2 1
Ra     0.00000000000000     0.00000000000000     0.00000000000000
O     2.31559841922036     1.63737534473556     4.01073411201584