CRYSTAL
# Primitive lattice vectors in Angstrom
PRIMVEC
 3.77981238613346 0.00000000000000 2.18227569862043
 1.25993746204448 3.56364129313050 2.18227569862043
 0.00000000000000 0.00000000000000 4.36455139724086
# Cartesian coordinates in Angstrom.
PRIMCOORD
 3 1
Ra     0.00000000000000     0.00000000000000     0.00000000000000
O     1.25993746204448     0.89091032328263     2.18227569862043
O     3.77981238613346     2.67273096984788     6.54682709586131