CRYSTAL
# Primitive lattice vectors in Angstrom
PRIMVEC
 4.35245097983747 0.00000000000000 0.00000000000000
 -0.00000000000000 4.35245097983747 0.00000000000000
 0.00000000000000 0.00000000000000 4.35245097983747
# Cartesian coordinates in Angstrom.
PRIMCOORD
 4 1
Ra     0.00000000000000     0.00000000000000     0.00000000000000
O     2.17622548991873     0.00000000000000     0.00000000000000
O     0.00000000000000     2.17622548991873     0.00000000000000
O     0.00000000000000     0.00000000000000     2.17622548991873