CRYSTAL
# Primitive lattice vectors in Angstrom
PRIMVEC
 4.29693777324967 0.00000000000000 2.48083818007677
 1.43231259108322 4.05119178373529 2.48083818007677
 0.00000000000000 0.00000000000000 4.96167636015354
# Cartesian coordinates in Angstrom.
PRIMCOORD
 3 1
Ra     1.43231259108322     1.01279794593382     2.48083818007677
Ra     4.29693777324967     3.03839383780147     7.44251454023031
O     0.00000000000000     0.00000000000000     0.00000000000000