CRYSTAL
# Primitive lattice vectors in Angstrom
PRIMVEC
 6.19539729577248 0.00000000000000 0.00000000000000
 -0.00000000000000 6.19539729577248 0.00000000000000
 0.00000000000000 0.00000000000000 6.19539729577248
# Cartesian coordinates in Angstrom.
PRIMCOORD
 10 1
Ra     1.54884932394312     1.54884932394312     1.54884932394312
Ra     4.64654797182936     4.64654797182936     1.54884932394312
Ra     4.64654797182936     1.54884932394312     4.64654797182936
Ra     1.54884932394312     4.64654797182936     4.64654797182936
O     3.09769864788624     0.00000000000000     0.00000000000000
O     0.00000000000000     3.09769864788624     0.00000000000000
O     0.00000000000000     0.00000000000000     3.09769864788624
O     3.09769864788624     3.09769864788624     0.00000000000000
O     3.09769864788624     0.00000000000000     3.09769864788624
O     0.00000000000000     3.09769864788624     3.09769864788624