CRYSTAL
# Primitive lattice vectors in Angstrom
PRIMVEC
 5.90943213963872 0.00000000000000 0.00000000000000
 -0.00000000000000 5.90943213963872 0.00000000000000
 0.00000000000000 0.00000000000000 5.90943213963872
# Cartesian coordinates in Angstrom.
PRIMCOORD
 14 1
Rb     0.00000000000000     0.00000000000000     0.00000000000000
Rb     2.95471606981936     2.95471606981936     0.00000000000000
Rb     2.95471606981936     0.00000000000000     2.95471606981936
Rb     0.00000000000000     2.95471606981936     2.95471606981936
O     2.95471606981936     0.00000000000000     0.00000000000000
O     0.00000000000000     2.95471606981936     0.00000000000000
O     0.00000000000000     0.00000000000000     2.95471606981936
O     2.95471606981936     2.95471606981936     2.95471606981936
O     4.43207410472904     4.43207410472904     1.47735803490968
O     4.43207410472904     1.47735803490968     4.43207410472904
O     1.47735803490968     4.43207410472904     4.43207410472904
O     4.43207410472904     1.47735803490968     1.47735803490968
O     1.47735803490968     4.43207410472904     1.47735803490968
O     1.47735803490968     1.47735803490968     4.43207410472904