CRYSTAL
# Primitive lattice vectors in Angstrom
PRIMVEC
 4.42448945385730 0.00000000000000 0.00000000000000
 -0.00000000000000 4.42448945385730 0.00000000000000
 0.00000000000000 0.00000000000000 4.42448945385730
# Cartesian coordinates in Angstrom.
PRIMCOORD
 4 1
Rb     0.00000000000000     0.00000000000000     0.00000000000000
O     2.21224472692864     0.00000000000000     0.00000000000000
O     0.00000000000000     2.21224472692864     0.00000000000000
O     0.00000000000000     0.00000000000000     2.21224472692864