CRYSTAL
# Primitive lattice vectors in Angstrom
PRIMVEC
 4.09673696376064 0.00000000000000 2.36525218882630
 1.36557898792021 3.86244065041698 2.36525218882630
 0.00000000000000 0.00000000000000 4.73050437765260
# Cartesian coordinates in Angstrom.
PRIMCOORD
 3 1
Rb     1.36557898792021     0.96561016260424     2.36525218882630
Rb     4.09673696376064     2.89683048781274     7.09575656647889
O     0.00000000000000     0.00000000000000     0.00000000000000