CRYSTAL
# Primitive lattice vectors in Angstrom
PRIMVEC
 6.25000624806030 0.00000000000000 0.00000000000000
 -0.00000000000000 6.25000624806030 0.00000000000000
 0.00000000000000 0.00000000000000 6.25000624806030
# Cartesian coordinates in Angstrom.
PRIMCOORD
 10 1
Rb     1.56250156201507     1.56250156201507     1.56250156201507
Rb     4.68750468604523     4.68750468604523     1.56250156201507
Rb     4.68750468604523     1.56250156201507     4.68750468604523
Rb     1.56250156201507     4.68750468604523     4.68750468604523
O     3.12500312403015     0.00000000000000     0.00000000000000
O     0.00000000000000     3.12500312403015     0.00000000000000
O     0.00000000000000     0.00000000000000     3.12500312403015
O     3.12500312403015     3.12500312403015     0.00000000000000
O     3.12500312403015     0.00000000000000     3.12500312403015
O     0.00000000000000     3.12500312403015     3.12500312403015