CRYSTAL
# Primitive lattice vectors in Angstrom
PRIMVEC
 3.82968811083474 0.00000000000000 2.21107146170275
 1.27656270361158 3.61066457733433 2.21107146170275
 0.00000000000000 0.00000000000000 4.42214292340549
# Cartesian coordinates in Angstrom.
PRIMCOORD
 3 1
Rb     0.00000000000000     0.00000000000000     0.00000000000000
O     1.27656270361158     0.90266614433358     2.21107146170275
O     3.82968811083474     2.70799843300075     6.63321438510825