CRYSTAL
# Primitive lattice vectors in Angstrom
PRIMVEC
 3.42566044435379 0.00000000000000 1.97780597969991
 1.14188681478460 3.22974364032679 1.97780597969991
 0.00000000000000 0.00000000000000 3.95561195939983
# Cartesian coordinates in Angstrom.
PRIMCOORD
 2 1
Rb     0.00000000000000     0.00000000000000     0.00000000000000
O     2.28377362956920     1.61487182016339     3.95561195939983