CRYSTAL
# Primitive lattice vectors in Angstrom
PRIMVEC
 4.41856076600906 0.00000000000000 0.00000000000000
 -0.00000000000000 4.41856076600906 0.00000000000000
 0.00000000000000 0.00000000000000 4.41856076600906
# Cartesian coordinates in Angstrom.
PRIMCOORD
 4 1
Rb     0.00000000000000     0.00000000000000     0.00000000000000
O     2.20928038300453     0.00000000000000     0.00000000000000
O     0.00000000000000     2.20928038300453     0.00000000000000
O     0.00000000000000     0.00000000000000     2.20928038300453