CRYSTAL
# Primitive lattice vectors in Angstrom
PRIMVEC
 4.93187921505076 0.00000000000000 0.00000000000000
 -0.00000000000000 4.93187921505076 0.00000000000000
 0.00000000000000 0.00000000000000 4.93187921505076
# Cartesian coordinates in Angstrom.
PRIMCOORD
 14 1
Re     0.00000000000000     0.00000000000000     0.00000000000000
Re     2.46593960752538     2.46593960752538     0.00000000000000
Re     2.46593960752538     0.00000000000000     2.46593960752538
Re     0.00000000000000     2.46593960752538     2.46593960752538
O     2.46593960752538     0.00000000000000     0.00000000000000
O     0.00000000000000     2.46593960752538     0.00000000000000
O     0.00000000000000     0.00000000000000     2.46593960752538
O     2.46593960752538     2.46593960752538     2.46593960752538
O     3.69890941128807     3.69890941128807     1.23296980376269
O     3.69890941128807     1.23296980376269     3.69890941128807
O     1.23296980376269     3.69890941128807     3.69890941128807
O     3.69890941128807     1.23296980376269     1.23296980376269
O     1.23296980376269     3.69890941128807     1.23296980376269
O     1.23296980376269     1.23296980376269     3.69890941128807