CRYSTAL
# Primitive lattice vectors in Angstrom
PRIMVEC
 4.74764054211790 0.00000000000000 0.00000000000000
 -0.00000000000000 4.74764054211790 0.00000000000000
 0.00000000000000 0.00000000000000 4.74764054211790
# Cartesian coordinates in Angstrom.
PRIMCOORD
 10 1
Re     1.18691013552947     1.18691013552947     1.18691013552947
Re     3.56073040658843     3.56073040658843     1.18691013552947
Re     3.56073040658843     1.18691013552947     3.56073040658843
Re     1.18691013552947     3.56073040658843     3.56073040658843
O     2.37382027105895     0.00000000000000     0.00000000000000
O     0.00000000000000     2.37382027105895     0.00000000000000
O     0.00000000000000     0.00000000000000     2.37382027105895
O     2.37382027105895     2.37382027105895     0.00000000000000
O     2.37382027105895     0.00000000000000     2.37382027105895
O     0.00000000000000     2.37382027105895     2.37382027105895