CRYSTAL
# Primitive lattice vectors in Angstrom
PRIMVEC
 3.74690758521991 0.00000000000000 0.00000000000000
 -0.00000000000000 3.74690758521991 0.00000000000000
 0.00000000000000 0.00000000000000 3.74690758521991
# Cartesian coordinates in Angstrom.
PRIMCOORD
 4 1
Re     0.00000000000000     0.00000000000000     0.00000000000000
O     1.87345379260995     0.00000000000000     0.00000000000000
O     0.00000000000000     1.87345379260995     0.00000000000000
O     0.00000000000000     0.00000000000000     1.87345379260995