CRYSTAL
# Primitive lattice vectors in Angstrom
PRIMVEC
 2.96349357485378 0.00000000000000 1.71097381318355
 0.98783119161792 2.79400853704249 1.71097381318355
 0.00000000000000 0.00000000000000 3.42194762636710
# Cartesian coordinates in Angstrom.
PRIMCOORD
 3 1
Re     0.00000000000000     0.00000000000000     0.00000000000000
O     0.98783119161792     0.69850213426062     1.71097381318355
O     2.96349357485378     2.09550640278187     5.13292143955066