CRYSTAL
# Primitive lattice vectors in Angstrom
PRIMVEC
 3.28974835653149 0.00000000000000 1.89933709920959
 1.09658278551049 3.10160449506762 1.89933709920959
 0.00000000000000 0.00000000000000 3.79867419841917
# Cartesian coordinates in Angstrom.
PRIMCOORD
 3 1
Re     1.09658278551049     0.77540112376690     1.89933709920959
Re     3.28974835653149     2.32620337130072     5.69801129762876
O     0.00000000000000     0.00000000000000     0.00000000000000