CRYSTAL
# Primitive lattice vectors in Angstrom
PRIMVEC
 2.69120959359862 0.00000000000000 1.55377058330987
 0.89706986453287 2.53729673763717 1.55377058330987
 0.00000000000000 0.00000000000000 3.10754116661973
# Cartesian coordinates in Angstrom.
PRIMCOORD
 2 1
Re     0.00000000000000     0.00000000000000     0.00000000000000
O     1.79413972906575     1.26864836881858     3.10754116661973