CRYSTAL
# Primitive lattice vectors in Angstrom
PRIMVEC
 3.74130945706284 0.00000000000000 0.00000000000000
 -0.00000000000000 3.74130945706284 0.00000000000000
 0.00000000000000 0.00000000000000 3.74130945706284
# Cartesian coordinates in Angstrom.
PRIMCOORD
 4 1
Rh     0.00000000000000     0.00000000000000     0.00000000000000
O     1.87065472853141     0.00000000000000     0.00000000000000
O     0.00000000000000     1.87065472853141     0.00000000000000
O     0.00000000000000     0.00000000000000     1.87065472853141