CRYSTAL
# Primitive lattice vectors in Angstrom
PRIMVEC
 2.96790598153349 0.00000000000000 1.71352131736786
 0.98930199384449 2.79816859395527 1.71352131736786
 0.00000000000000 0.00000000000000 3.42704263473572
# Cartesian coordinates in Angstrom.
PRIMCOORD
 3 1
Rh     0.00000000000000     0.00000000000000     0.00000000000000
O     0.98930199384449     0.69954214848882     1.71352131736786
O     2.96790598153349     2.09862644546645     5.14056395210359