CRYSTAL
# Primitive lattice vectors in Angstrom
PRIMVEC
 3.24107883357722 0.00000000000000 1.87123773703061
 1.08035961119240 3.05571842877685 1.87123773703061
 0.00000000000000 0.00000000000000 3.74247547406121
# Cartesian coordinates in Angstrom.
PRIMCOORD
 3 1
Rh     1.08035961119240     0.76392960719421     1.87123773703061
Rh     3.24107883357722     2.29178882158264     5.61371321109181
O     0.00000000000000     0.00000000000000     0.00000000000000