CRYSTAL
# Primitive lattice vectors in Angstrom
PRIMVEC
 4.99623979329887 0.00000000000000 0.00000000000000
 -0.00000000000000 4.99623979329887 0.00000000000000
 0.00000000000000 0.00000000000000 4.99623979329887
# Cartesian coordinates in Angstrom.
PRIMCOORD
 14 1
Rh     0.00000000000000     0.00000000000000     0.00000000000000
Rh     2.49811989664943     2.49811989664943     0.00000000000000
Rh     2.49811989664943     0.00000000000000     2.49811989664943
Rh     0.00000000000000     2.49811989664943     2.49811989664943
O     2.49811989664943     0.00000000000000     0.00000000000000
O     0.00000000000000     2.49811989664943     0.00000000000000
O     0.00000000000000     0.00000000000000     2.49811989664943
O     2.49811989664943     2.49811989664943     2.49811989664943
O     3.74717984497415     3.74717984497415     1.24905994832472
O     3.74717984497415     1.24905994832472     3.74717984497415
O     1.24905994832472     3.74717984497415     3.74717984497415
O     3.74717984497415     1.24905994832472     1.24905994832472
O     1.24905994832472     3.74717984497415     1.24905994832472
O     1.24905994832472     1.24905994832472     3.74717984497415