CRYSTAL
# Primitive lattice vectors in Angstrom
PRIMVEC
 2.67997626594427 0.00000000000000 1.54728501856473
 0.89332542198142 2.52670585475759 1.54728501856473
 0.00000000000000 0.00000000000000 3.09457003712946
# Cartesian coordinates in Angstrom.
PRIMCOORD
 2 1
Rh     0.00000000000000     0.00000000000000     0.00000000000000
O     1.78665084396285     1.26335292737879     3.09457003712946