CRYSTAL
# Primitive lattice vectors in Angstrom
PRIMVEC
 4.70872297932390 0.00000000000000 0.00000000000000
 -0.00000000000000 4.70872297932390 0.00000000000000
 0.00000000000000 0.00000000000000 4.70872297932390
# Cartesian coordinates in Angstrom.
PRIMCOORD
 10 1
Rh     1.17718074483097     1.17718074483097     1.17718074483097
Rh     3.53154223449292     3.53154223449292     1.17718074483097
Rh     3.53154223449292     1.17718074483097     3.53154223449292
Rh     1.17718074483097     3.53154223449292     3.53154223449292
O     2.35436148966195     0.00000000000000     0.00000000000000
O     0.00000000000000     2.35436148966195     0.00000000000000
O     0.00000000000000     0.00000000000000     2.35436148966195
O     2.35436148966195     2.35436148966195     0.00000000000000
O     2.35436148966195     0.00000000000000     2.35436148966195
O     0.00000000000000     2.35436148966195     2.35436148966195