CRYSTAL
# Primitive lattice vectors in Angstrom
PRIMVEC
 5.55437151543902 0.00000000000000 0.00000000000000
 -0.00000000000000 5.55437151543902 0.00000000000000
 0.00000000000000 0.00000000000000 5.55437151543902
# Cartesian coordinates in Angstrom.
PRIMCOORD
 14 1
Rn     0.00000000000000     0.00000000000000     0.00000000000000
Rn     2.77718575771951     2.77718575771951     0.00000000000000
Rn     2.77718575771951     0.00000000000000     2.77718575771951
Rn     0.00000000000000     2.77718575771951     2.77718575771951
O     2.77718575771951     0.00000000000000     0.00000000000000
O     0.00000000000000     2.77718575771951     0.00000000000000
O     0.00000000000000     0.00000000000000     2.77718575771951
O     2.77718575771951     2.77718575771951     2.77718575771951
O     4.16577863657927     4.16577863657927     1.38859287885976
O     4.16577863657927     1.38859287885976     4.16577863657927
O     1.38859287885976     4.16577863657927     4.16577863657927
O     4.16577863657927     1.38859287885976     1.38859287885976
O     1.38859287885976     4.16577863657927     1.38859287885976
O     1.38859287885976     1.38859287885976     4.16577863657927