CRYSTAL
# Primitive lattice vectors in Angstrom
PRIMVEC
 4.12177559054414 0.00000000000000 0.00000000000000
 -0.00000000000000 4.12177559054414 0.00000000000000
 0.00000000000000 0.00000000000000 4.12177559054414
# Cartesian coordinates in Angstrom.
PRIMCOORD
 4 1
Rn     0.00000000000000     0.00000000000000     0.00000000000000
O     2.06088779527206     0.00000000000000     0.00000000000000
O     0.00000000000000     2.06088779527206     0.00000000000000
O     0.00000000000000     0.00000000000000     2.06088779527206