CRYSTAL
# Primitive lattice vectors in Angstrom
PRIMVEC
 3.48477522187917 0.00000000000000 2.01193591241727
 1.16159174062639 3.28547758706882 2.01193591241727
 0.00000000000000 0.00000000000000 4.02387182483455
# Cartesian coordinates in Angstrom.
PRIMCOORD
 3 1
Rn     0.00000000000000     0.00000000000000     0.00000000000000
O     1.16159174062639     0.82136939676721     2.01193591241727
O     3.48477522187917     2.46410819030162     6.03580773725183