CRYSTAL
# Primitive lattice vectors in Angstrom
PRIMVEC
 3.43065324699396 0.00000000000000 1.98068857564822
 1.14355108233132 3.23445089979877 1.98068857564822
 0.00000000000000 0.00000000000000 3.96137715129645
# Cartesian coordinates in Angstrom.
PRIMCOORD
 2 1
Rn     0.00000000000000     0.00000000000000     0.00000000000000
O     2.28710216466264     1.61722544989938     3.96137715129645