CRYSTAL
# Primitive lattice vectors in Angstrom
PRIMVEC
 5.76101148463776 0.00000000000000 0.00000000000000
 -0.00000000000000 5.76101148463776 0.00000000000000
 0.00000000000000 0.00000000000000 5.76101148463776
# Cartesian coordinates in Angstrom.
PRIMCOORD
 10 1
Rn     1.44025287115944     1.44025287115944     1.44025287115944
Rn     4.32075861347832     4.32075861347832     1.44025287115944
Rn     4.32075861347832     1.44025287115944     4.32075861347832
Rn     1.44025287115944     4.32075861347832     4.32075861347832
O     2.88050574231888     0.00000000000000     0.00000000000000
O     0.00000000000000     2.88050574231888     0.00000000000000
O     0.00000000000000     0.00000000000000     2.88050574231888
O     2.88050574231888     2.88050574231888     0.00000000000000
O     2.88050574231888     0.00000000000000     2.88050574231888
O     0.00000000000000     2.88050574231888     2.88050574231888