CRYSTAL
# Primitive lattice vectors in Angstrom
PRIMVEC
 4.67652064063956 0.00000000000000 2.69999045074409
 1.55884021354652 4.40906594314012 2.69999045074409
 0.00000000000000 0.00000000000000 5.39998090148819
# Cartesian coordinates in Angstrom.
PRIMCOORD
 3 1
Rn     1.55884021354652     1.10226648578503     2.69999045074409
Rn     4.67652064063956     3.30679945735509     8.09997135223228
O     0.00000000000000     0.00000000000000     0.00000000000000