CRYSTAL
# Primitive lattice vectors in Angstrom
PRIMVEC
 2.65762711104632 0.00000000000000 1.53438172796824
 0.88587570368211 2.50563486944809 1.53438172796824
 0.00000000000000 0.00000000000000 3.06876345593647
# Cartesian coordinates in Angstrom.
PRIMCOORD
 2 1
Ru     0.00000000000000     0.00000000000000     0.00000000000000
O     1.77175140736421     1.25281743472404     3.06876345593647