CRYSTAL
# Primitive lattice vectors in Angstrom
PRIMVEC
 2.92215964323336 0.00000000000000 1.68710965663584
 0.97405321441112 2.75503853258663 1.68710965663584
 0.00000000000000 0.00000000000000 3.37421931327168
# Cartesian coordinates in Angstrom.
PRIMCOORD
 3 1
Ru     0.00000000000000     0.00000000000000     0.00000000000000
O     0.97405321441112     0.68875963314666     1.68710965663584
O     2.92215964323336     2.06627889943997     5.06132896990753