CRYSTAL
# Primitive lattice vectors in Angstrom
PRIMVEC
 3.70834264322061 0.00000000000000 0.00000000000000
 -0.00000000000000 3.70834264322061 0.00000000000000
 0.00000000000000 0.00000000000000 3.70834264322061
# Cartesian coordinates in Angstrom.
PRIMCOORD
 4 1
Ru     0.00000000000000     0.00000000000000     0.00000000000000
O     1.85417132161030     0.00000000000000     0.00000000000000
O     0.00000000000000     1.85417132161030     0.00000000000000
O     0.00000000000000     0.00000000000000     1.85417132161030