CRYSTAL
# Primitive lattice vectors in Angstrom
PRIMVEC
 4.69123494608837 0.00000000000000 0.00000000000000
 -0.00000000000000 4.69123494608837 0.00000000000000
 0.00000000000000 0.00000000000000 4.69123494608837
# Cartesian coordinates in Angstrom.
PRIMCOORD
 10 1
Ru     1.17280873652209     1.17280873652209     1.17280873652209
Ru     3.51842620956628     3.51842620956628     1.17280873652209
Ru     3.51842620956628     1.17280873652209     3.51842620956628
Ru     1.17280873652209     3.51842620956628     3.51842620956628
O     2.34561747304419     0.00000000000000     0.00000000000000
O     0.00000000000000     2.34561747304419     0.00000000000000
O     0.00000000000000     0.00000000000000     2.34561747304419
O     2.34561747304419     2.34561747304419     0.00000000000000
O     2.34561747304419     0.00000000000000     2.34561747304419
O     0.00000000000000     2.34561747304419     2.34561747304419