CRYSTAL
# Primitive lattice vectors in Angstrom
PRIMVEC
 3.21925878899854 0.00000000000000 1.85863992841938
 1.07308626299951 3.03514629346035 1.85863992841938
 0.00000000000000 0.00000000000000 3.71727985683875
# Cartesian coordinates in Angstrom.
PRIMCOORD
 3 1
Ru     1.07308626299951     0.75878657336508     1.85863992841938
Ru     3.21925878899854     2.27635972009526     5.57591978525813
O     0.00000000000000     0.00000000000000     0.00000000000000