CRYSTAL
# Primitive lattice vectors in Angstrom
PRIMVEC
 4.94741874527420 0.00000000000000 0.00000000000000
 -0.00000000000000 4.94741874527420 0.00000000000000
 0.00000000000000 0.00000000000000 4.94741874527420
# Cartesian coordinates in Angstrom.
PRIMCOORD
 14 1
Ru     0.00000000000000     0.00000000000000     0.00000000000000
Ru     2.47370937263710     2.47370937263710     0.00000000000000
Ru     2.47370937263710     0.00000000000000     2.47370937263710
Ru     0.00000000000000     2.47370937263710     2.47370937263710
O     2.47370937263710     0.00000000000000     0.00000000000000
O     0.00000000000000     2.47370937263710     0.00000000000000
O     0.00000000000000     0.00000000000000     2.47370937263710
O     2.47370937263710     2.47370937263710     2.47370937263710
O     3.71056405895565     3.71056405895565     1.23685468631855
O     3.71056405895565     1.23685468631855     3.71056405895565
O     1.23685468631855     3.71056405895565     3.71056405895565
O     3.71056405895565     1.23685468631855     1.23685468631855
O     1.23685468631855     3.71056405895565     1.23685468631855
O     1.23685468631855     1.23685468631855     3.71056405895565