CRYSTAL
# Primitive lattice vectors in Angstrom
PRIMVEC
 3.33000451451774 0.00000000000000 1.92257900285949
 1.11000150483924 3.13955836479642 1.92257900285949
 0.00000000000000 0.00000000000000 3.84515800571898
# Cartesian coordinates in Angstrom.
PRIMCOORD
 3 1
S     1.11000150483924     0.78488959119910     1.92257900285949
S     3.33000451451774     2.35466877359731     5.76773700857847
O     0.00000000000000     0.00000000000000     0.00000000000000