CRYSTAL
# Primitive lattice vectors in Angstrom
PRIMVEC
 4.82528223540227 0.00000000000000 0.00000000000000
 -0.00000000000000 4.82528223540227 0.00000000000000
 0.00000000000000 0.00000000000000 4.82528223540227
# Cartesian coordinates in Angstrom.
PRIMCOORD
 10 1
S     1.20632055885056     1.20632055885056     1.20632055885056
S     3.61896167655170     3.61896167655170     1.20632055885056
S     3.61896167655170     1.20632055885056     3.61896167655170
S     1.20632055885056     3.61896167655170     3.61896167655170
O     2.41264111770114     0.00000000000000     0.00000000000000
O     0.00000000000000     2.41264111770114     0.00000000000000
O     0.00000000000000     0.00000000000000     2.41264111770114
O     2.41264111770114     2.41264111770114     0.00000000000000
O     2.41264111770114     0.00000000000000     2.41264111770114
O     0.00000000000000     2.41264111770114     2.41264111770114