CRYSTAL
# Primitive lattice vectors in Angstrom
PRIMVEC
 5.02659401068602 0.00000000000000 0.00000000000000
 -0.00000000000000 5.02659401068602 0.00000000000000
 0.00000000000000 0.00000000000000 5.02659401068602
# Cartesian coordinates in Angstrom.
PRIMCOORD
 14 1
S     0.00000000000000     0.00000000000000     0.00000000000000
S     2.51329700534301     2.51329700534301     0.00000000000000
S     2.51329700534301     0.00000000000000     2.51329700534301
S     0.00000000000000     2.51329700534301     2.51329700534301
O     2.51329700534301     0.00000000000000     0.00000000000000
O     0.00000000000000     2.51329700534301     0.00000000000000
O     0.00000000000000     0.00000000000000     2.51329700534301
O     2.51329700534301     2.51329700534301     2.51329700534301
O     3.76994550801452     3.76994550801452     1.25664850267151
O     3.76994550801452     1.25664850267151     3.76994550801452
O     1.25664850267151     3.76994550801452     3.76994550801452
O     3.76994550801452     1.25664850267151     1.25664850267151
O     1.25664850267151     3.76994550801452     1.25664850267151
O     1.25664850267151     1.25664850267151     3.76994550801452