CRYSTAL
# Primitive lattice vectors in Angstrom
PRIMVEC
 2.96883424765687 0.00000000000000 1.71405725206407
 0.98961141588562 2.79904377164938 1.71405725206407
 0.00000000000000 0.00000000000000 3.42811450412814
# Cartesian coordinates in Angstrom.
PRIMCOORD
 3 1
S     0.00000000000000     0.00000000000000     0.00000000000000
O     0.98961141588562     0.69976094291235     1.71405725206407
O     2.96883424765687     2.09928282873704     5.14217175619222