CRYSTAL
# Primitive lattice vectors in Angstrom
PRIMVEC
 2.78831796892403 0.00000000000000 1.60983612994456
 0.92943932297468 2.62885139190731 1.60983612994456
 0.00000000000000 0.00000000000000 3.21967225988911
# Cartesian coordinates in Angstrom.
PRIMCOORD
 2 1
S     0.00000000000000     0.00000000000000     0.00000000000000
O     1.85887864594935     1.31442569595365     3.21967225988911