CRYSTAL
# Primitive lattice vectors in Angstrom
PRIMVEC
 3.34651133610085 0.00000000000000 0.00000000000000
 -0.00000000000000 3.34651133610085 0.00000000000000
 0.00000000000000 0.00000000000000 3.34651133610085
# Cartesian coordinates in Angstrom.
PRIMCOORD
 4 1
S     0.00000000000000     0.00000000000000     0.00000000000000
O     1.67325566805042     0.00000000000000     0.00000000000000
O     0.00000000000000     1.67325566805042     0.00000000000000
O     0.00000000000000     0.00000000000000     1.67325566805042