CRYSTAL
# Primitive lattice vectors in Angstrom
PRIMVEC
 3.09600866228619 0.00000000000000 1.78748143458434
 1.03200288742873 2.91894495961981 1.78748143458434
 0.00000000000000 0.00000000000000 3.57496286916869
# Cartesian coordinates in Angstrom.
PRIMCOORD
 2 1
Sb     0.00000000000000     0.00000000000000     0.00000000000000
O     2.06400577485746     1.45947247980990     3.57496286916869