CRYSTAL
# Primitive lattice vectors in Angstrom
PRIMVEC
 5.32714509612667 0.00000000000000 0.00000000000000
 -0.00000000000000 5.32714509612667 0.00000000000000
 0.00000000000000 0.00000000000000 5.32714509612667
# Cartesian coordinates in Angstrom.
PRIMCOORD
 10 1
Sb     1.33178627403167     1.33178627403167     1.33178627403167
Sb     3.99535882209500     3.99535882209500     1.33178627403167
Sb     3.99535882209500     1.33178627403167     3.99535882209500
Sb     1.33178627403167     3.99535882209500     3.99535882209500
O     2.66357254806334     0.00000000000000     0.00000000000000
O     0.00000000000000     2.66357254806334     0.00000000000000
O     0.00000000000000     0.00000000000000     2.66357254806334
O     2.66357254806334     2.66357254806334     0.00000000000000
O     2.66357254806334     0.00000000000000     2.66357254806334
O     0.00000000000000     2.66357254806334     2.66357254806334