CRYSTAL
# Primitive lattice vectors in Angstrom
PRIMVEC
 3.77680769728659 0.00000000000000 2.18054094070587
 1.25893589909553 3.56080844531853 2.18054094070587
 0.00000000000000 0.00000000000000 4.36108188141173
# Cartesian coordinates in Angstrom.
PRIMCOORD
 3 1
Sb     1.25893589909553     0.89020211132963     2.18054094070587
Sb     3.77680769728659     2.67060633398890     6.54162282211760
O     0.00000000000000     0.00000000000000     0.00000000000000