CRYSTAL
# Primitive lattice vectors in Angstrom
PRIMVEC
 5.31029706150805 0.00000000000000 0.00000000000000
 -0.00000000000000 5.31029706150805 0.00000000000000
 0.00000000000000 0.00000000000000 5.31029706150805
# Cartesian coordinates in Angstrom.
PRIMCOORD
 14 1
Sb     0.00000000000000     0.00000000000000     0.00000000000000
Sb     2.65514853075403     2.65514853075403     0.00000000000000
Sb     2.65514853075403     0.00000000000000     2.65514853075403
Sb     0.00000000000000     2.65514853075403     2.65514853075403
O     2.65514853075403     0.00000000000000     0.00000000000000
O     0.00000000000000     2.65514853075403     0.00000000000000
O     0.00000000000000     0.00000000000000     2.65514853075403
O     2.65514853075403     2.65514853075403     2.65514853075403
O     3.98272279613104     3.98272279613104     1.32757426537701
O     3.98272279613104     1.32757426537701     3.98272279613104
O     1.32757426537701     3.98272279613104     3.98272279613104
O     3.98272279613104     1.32757426537701     1.32757426537701
O     1.32757426537701     3.98272279613104     1.32757426537701
O     1.32757426537701     1.32757426537701     3.98272279613104