CRYSTAL
# Primitive lattice vectors in Angstrom
PRIMVEC
 3.21573293024208 0.00000000000000 1.85660427291721
 1.07191097674736 3.03182208194542 1.85660427291721
 0.00000000000000 0.00000000000000 3.71320854583441
# Cartesian coordinates in Angstrom.
PRIMCOORD
 3 1
Sb     0.00000000000000     0.00000000000000     0.00000000000000
O     1.07191097674736     0.75795552048635     1.85660427291721
O     3.21573293024208     2.27386656145906     5.56981281875163