CRYSTAL
# Primitive lattice vectors in Angstrom
PRIMVEC
 3.88395704634171 0.00000000000000 0.00000000000000
 -0.00000000000000 3.88395704634171 0.00000000000000
 0.00000000000000 0.00000000000000 3.88395704634171
# Cartesian coordinates in Angstrom.
PRIMCOORD
 4 1
Sb     0.00000000000000     0.00000000000000     0.00000000000000
O     1.94197852317085     0.00000000000000     0.00000000000000
O     0.00000000000000     1.94197852317085     0.00000000000000
O     0.00000000000000     0.00000000000000     1.94197852317085