CRYSTAL
# Primitive lattice vectors in Angstrom
PRIMVEC
 4.08135515550916 0.00000000000000 0.00000000000000
 -0.00000000000000 4.08135515550916 0.00000000000000
 0.00000000000000 0.00000000000000 4.08135515550916
# Cartesian coordinates in Angstrom.
PRIMCOORD
 4 1
Sc     0.00000000000000     0.00000000000000     0.00000000000000
O     2.04067757775458     0.00000000000000     0.00000000000000
O     0.00000000000000     2.04067757775458     0.00000000000000
O     0.00000000000000     0.00000000000000     2.04067757775458