CRYSTAL
# Primitive lattice vectors in Angstrom
PRIMVEC
 5.15247060883370 0.00000000000000 0.00000000000000
 -0.00000000000000 5.15247060883370 0.00000000000000
 0.00000000000000 0.00000000000000 5.15247060883370
# Cartesian coordinates in Angstrom.
PRIMCOORD
 14 1
Sc     0.00000000000000     0.00000000000000     0.00000000000000
Sc     2.57623530441685     2.57623530441685     0.00000000000000
Sc     2.57623530441685     0.00000000000000     2.57623530441685
Sc     0.00000000000000     2.57623530441685     2.57623530441685
O     2.57623530441685     0.00000000000000     0.00000000000000
O     0.00000000000000     2.57623530441685     0.00000000000000
O     0.00000000000000     0.00000000000000     2.57623530441685
O     2.57623530441685     2.57623530441685     2.57623530441685
O     3.86435295662527     3.86435295662527     1.28811765220842
O     3.86435295662527     1.28811765220842     3.86435295662527
O     1.28811765220842     3.86435295662527     3.86435295662527
O     3.86435295662527     1.28811765220842     1.28811765220842
O     1.28811765220842     3.86435295662527     1.28811765220842
O     1.28811765220842     1.28811765220842     3.86435295662527