CRYSTAL
# Primitive lattice vectors in Angstrom
PRIMVEC
 3.07835151042062 0.00000000000000 1.77728707320164
 1.02611717014020 2.90229763719237 1.77728707320164
 0.00000000000000 0.00000000000000 3.55457414640327
# Cartesian coordinates in Angstrom.
PRIMCOORD
 3 1
Sc     0.00000000000000     0.00000000000000     0.00000000000000
O     1.02611717014020     0.72557440929809     1.77728707320164
O     3.07835151042062     2.17672322789427     5.33186121960491