CRYSTAL
# Primitive lattice vectors in Angstrom
PRIMVEC
 4.93621710375883 0.00000000000000 0.00000000000000
 -0.00000000000000 4.93621710375883 0.00000000000000
 0.00000000000000 0.00000000000000 4.93621710375883
# Cartesian coordinates in Angstrom.
PRIMCOORD
 10 1
Sc     1.23405427593970     1.23405427593970     1.23405427593970
Sc     3.70216282781912     3.70216282781912     1.23405427593970
Sc     3.70216282781912     1.23405427593970     3.70216282781912
Sc     1.23405427593970     3.70216282781912     3.70216282781912
O     2.46810855187942     0.00000000000000     0.00000000000000
O     0.00000000000000     2.46810855187942     0.00000000000000
O     0.00000000000000     0.00000000000000     2.46810855187942
O     2.46810855187942     2.46810855187942     0.00000000000000
O     2.46810855187942     0.00000000000000     2.46810855187942
O     0.00000000000000     2.46810855187942     2.46810855187942