CRYSTAL
# Primitive lattice vectors in Angstrom
PRIMVEC
 2.70147660124820 0.00000000000000 1.55969824294012
 0.90049220041607 2.54697656527919 1.55969824294012
 0.00000000000000 0.00000000000000 3.11939648588025
# Cartesian coordinates in Angstrom.
PRIMCOORD
 2 1
Sc     0.00000000000000     0.00000000000000     0.00000000000000
O     1.80098440083214     1.27348828263959     3.11939648588025