CRYSTAL
# Primitive lattice vectors in Angstrom
PRIMVEC
 3.34864964815597 0.00000000000000 1.93334377578460
 1.11621654938532 3.15713716537205 1.93334377578460
 0.00000000000000 0.00000000000000 3.86668755156920
# Cartesian coordinates in Angstrom.
PRIMCOORD
 3 1
Sc     1.11621654938532     0.78928429134301     1.93334377578460
Sc     3.34864964815597     2.36785287402904     5.80003132735379
O     0.00000000000000     0.00000000000000     0.00000000000000