CRYSTAL
# Primitive lattice vectors in Angstrom
PRIMVEC
 5.02607033668704 0.00000000000000 0.00000000000000
 -0.00000000000000 5.02607033668704 0.00000000000000
 0.00000000000000 0.00000000000000 5.02607033668704
# Cartesian coordinates in Angstrom.
PRIMCOORD
 10 1
Se     1.25651758417176     1.25651758417176     1.25651758417176
Se     3.76955275251528     3.76955275251528     1.25651758417176
Se     3.76955275251528     1.25651758417176     3.76955275251528
Se     1.25651758417176     3.76955275251528     3.76955275251528
O     2.51303516834353     0.00000000000000     0.00000000000000
O     0.00000000000000     2.51303516834353     0.00000000000000
O     0.00000000000000     0.00000000000000     2.51303516834353
O     2.51303516834353     2.51303516834353     0.00000000000000
O     2.51303516834353     0.00000000000000     2.51303516834353
O     0.00000000000000     2.51303516834353     2.51303516834353