CRYSTAL
# Primitive lattice vectors in Angstrom
PRIMVEC
 2.92028441352108 0.00000000000000 1.68602699225666
 0.97342813784036 2.75327054905885 1.68602699225666
 0.00000000000000 0.00000000000000 3.37205398451333
# Cartesian coordinates in Angstrom.
PRIMCOORD
 2 1
Se     0.00000000000000     0.00000000000000     0.00000000000000
O     1.94685627568072     1.37663527452942     3.37205398451333