CRYSTAL
# Primitive lattice vectors in Angstrom
PRIMVEC
 3.08027998292453 0.00000000000000 1.77840047732089
 1.02675999430818 2.90411581850550 1.77840047732089
 0.00000000000000 0.00000000000000 3.55680095464179
# Cartesian coordinates in Angstrom.
PRIMCOORD
 3 1
Se     0.00000000000000     0.00000000000000     0.00000000000000
O     1.02675999430818     0.72602895462637     1.77840047732089
O     3.08027998292453     2.17808686387912     5.33520143196269