CRYSTAL
# Primitive lattice vectors in Angstrom
PRIMVEC
 3.51384916950013 0.00000000000000 2.02872176390265
 1.17128305650004 3.31288876776035 2.02872176390265
 0.00000000000000 0.00000000000000 4.05744352780529
# Cartesian coordinates in Angstrom.
PRIMCOORD
 3 1
Se     1.17128305650004     0.82822219194008     2.02872176390265
Se     3.51384916950013     2.48466657582026     6.08616529170794
O     0.00000000000000     0.00000000000000     0.00000000000000