CRYSTAL
# Primitive lattice vectors in Angstrom
PRIMVEC
 3.62794246614909 0.00000000000000 0.00000000000000
 -0.00000000000000 3.62794246614909 0.00000000000000
 0.00000000000000 0.00000000000000 3.62794246614909
# Cartesian coordinates in Angstrom.
PRIMCOORD
 4 1
Se     0.00000000000000     0.00000000000000     0.00000000000000
O     1.81397123307454     0.00000000000000     0.00000000000000
O     0.00000000000000     1.81397123307454     0.00000000000000
O     0.00000000000000     0.00000000000000     1.81397123307454