CRYSTAL
# Primitive lattice vectors in Angstrom
PRIMVEC
 5.15420043959192 0.00000000000000 0.00000000000000
 -0.00000000000000 5.15420043959192 0.00000000000000
 0.00000000000000 0.00000000000000 5.15420043959192
# Cartesian coordinates in Angstrom.
PRIMCOORD
 14 1
Se     0.00000000000000     0.00000000000000     0.00000000000000
Se     2.57710021979596     2.57710021979596     0.00000000000000
Se     2.57710021979596     0.00000000000000     2.57710021979596
Se     0.00000000000000     2.57710021979596     2.57710021979596
O     2.57710021979596     0.00000000000000     0.00000000000000
O     0.00000000000000     2.57710021979596     0.00000000000000
O     0.00000000000000     0.00000000000000     2.57710021979596
O     2.57710021979596     2.57710021979596     2.57710021979596
O     3.86565032969394     3.86565032969394     1.28855010989798
O     3.86565032969394     1.28855010989798     3.86565032969394
O     1.28855010989798     3.86565032969394     3.86565032969394
O     3.86565032969394     1.28855010989798     1.28855010989798
O     1.28855010989798     3.86565032969394     1.28855010989798
O     1.28855010989798     1.28855010989798     3.86565032969394