CRYSTAL
# Primitive lattice vectors in Angstrom
PRIMVEC
 4.88987752395094 0.00000000000000 0.00000000000000
 -0.00000000000000 4.88987752395094 0.00000000000000
 0.00000000000000 0.00000000000000 4.88987752395094
# Cartesian coordinates in Angstrom.
PRIMCOORD
 14 1
Si     0.00000000000000     0.00000000000000     0.00000000000000
Si     2.44493876197547     2.44493876197547     0.00000000000000
Si     2.44493876197547     0.00000000000000     2.44493876197547
Si     0.00000000000000     2.44493876197547     2.44493876197547
O     2.44493876197547     0.00000000000000     0.00000000000000
O     0.00000000000000     2.44493876197547     0.00000000000000
O     0.00000000000000     0.00000000000000     2.44493876197547
O     2.44493876197547     2.44493876197547     2.44493876197547
O     3.66740814296320     3.66740814296320     1.22246938098773
O     3.66740814296320     1.22246938098773     3.66740814296320
O     1.22246938098773     3.66740814296320     3.66740814296320
O     3.66740814296320     1.22246938098773     1.22246938098773
O     1.22246938098773     3.66740814296320     1.22246938098773
O     1.22246938098773     1.22246938098773     3.66740814296320