CRYSTAL
# Primitive lattice vectors in Angstrom
PRIMVEC
 4.55231190439499 0.00000000000000 0.00000000000000
 -0.00000000000000 4.55231190439499 0.00000000000000
 0.00000000000000 0.00000000000000 4.55231190439499
# Cartesian coordinates in Angstrom.
PRIMCOORD
 10 1
Si     1.13807797609874     1.13807797609874     1.13807797609874
Si     3.41423392829624     3.41423392829624     1.13807797609874
Si     3.41423392829624     1.13807797609874     3.41423392829624
Si     1.13807797609874     3.41423392829624     3.41423392829624
O     2.27615595219750     0.00000000000000     0.00000000000000
O     0.00000000000000     2.27615595219750     0.00000000000000
O     0.00000000000000     0.00000000000000     2.27615595219750
O     2.27615595219750     2.27615595219750     0.00000000000000
O     2.27615595219750     0.00000000000000     2.27615595219750
O     0.00000000000000     2.27615595219750     2.27615595219750