CRYSTAL
# Primitive lattice vectors in Angstrom
PRIMVEC
 3.35361100021484 0.00000000000000 1.93620821373133
 1.11787033340494 3.16181477295161 1.93620821373133
 0.00000000000000 0.00000000000000 3.87241642746266
# Cartesian coordinates in Angstrom.
PRIMCOORD
 3 1
Si     1.11787033340494     0.79045369323790     1.93620821373133
Si     3.35361100021484     2.37136107971371     5.80862464119398
O     0.00000000000000     0.00000000000000     0.00000000000000