CRYSTAL
# Primitive lattice vectors in Angstrom
PRIMVEC
 2.79345486539666 0.00000000000000 1.61280191850583
 0.93115162179889 2.63369450434737 1.61280191850583
 0.00000000000000 0.00000000000000 3.22560383701165
# Cartesian coordinates in Angstrom.
PRIMCOORD
 2 1
Si     0.00000000000000     0.00000000000000     0.00000000000000
O     1.86230324359777     1.31684725217368     3.22560383701165