CRYSTAL
# Primitive lattice vectors in Angstrom
PRIMVEC
 2.78339325190386 0.00000000000000 1.60699284324728
 0.92779775063462 2.62420832417347 1.60699284324728
 0.00000000000000 0.00000000000000 3.21398568649456
# Cartesian coordinates in Angstrom.
PRIMCOORD
 3 1
Si     0.00000000000000     0.00000000000000     0.00000000000000
O     0.92779775063462     0.65605208104337     1.60699284324728
O     2.78339325190386     1.96815624313010     4.82097852974185