CRYSTAL
# Primitive lattice vectors in Angstrom
PRIMVEC
 3.44404928049601 0.00000000000000 0.00000000000000
 -0.00000000000000 3.44404928049601 0.00000000000000
 0.00000000000000 0.00000000000000 3.44404928049601
# Cartesian coordinates in Angstrom.
PRIMCOORD
 4 1
Si     0.00000000000000     0.00000000000000     0.00000000000000
O     1.72202464024800     0.00000000000000     0.00000000000000
O     0.00000000000000     1.72202464024800     0.00000000000000
O     0.00000000000000     0.00000000000000     1.72202464024800