CRYSTAL
# Primitive lattice vectors in Angstrom
PRIMVEC
 3.22215625459488 0.00000000000000 1.86031278096139
 1.07405208486496 3.03787805022225 1.86031278096139
 0.00000000000000 0.00000000000000 3.72062556192278
# Cartesian coordinates in Angstrom.
PRIMCOORD
 3 1
Sm     0.00000000000000     0.00000000000000     0.00000000000000
O     1.07405208486496     0.75946951255556     1.86031278096139
O     3.22215625459488     2.27840853766669     5.58093834288418