CRYSTAL
# Primitive lattice vectors in Angstrom
PRIMVEC
 5.30918866568543 0.00000000000000 0.00000000000000
 -0.00000000000000 5.30918866568543 0.00000000000000
 0.00000000000000 0.00000000000000 5.30918866568543
# Cartesian coordinates in Angstrom.
PRIMCOORD
 14 1
Sm     0.00000000000000     0.00000000000000     0.00000000000000
Sm     2.65459433284271     2.65459433284271     0.00000000000000
Sm     2.65459433284271     0.00000000000000     2.65459433284271
Sm     0.00000000000000     2.65459433284271     2.65459433284271
O     2.65459433284271     0.00000000000000     0.00000000000000
O     0.00000000000000     2.65459433284271     0.00000000000000
O     0.00000000000000     0.00000000000000     2.65459433284271
O     2.65459433284271     2.65459433284271     2.65459433284271
O     3.98189149926407     3.98189149926407     1.32729716642136
O     3.98189149926407     1.32729716642136     3.98189149926407
O     1.32729716642136     3.98189149926407     3.98189149926407
O     3.98189149926407     1.32729716642136     1.32729716642136
O     1.32729716642136     3.98189149926407     1.32729716642136
O     1.32729716642136     1.32729716642136     3.98189149926407