CRYSTAL
# Primitive lattice vectors in Angstrom
PRIMVEC
 5.27036529228891 0.00000000000000 0.00000000000000
 -0.00000000000000 5.27036529228891 0.00000000000000
 0.00000000000000 0.00000000000000 5.27036529228891
# Cartesian coordinates in Angstrom.
PRIMCOORD
 10 1
Sm     1.31759132307223     1.31759132307223     1.31759132307223
Sm     3.95277396921669     3.95277396921669     1.31759132307223
Sm     3.95277396921669     1.31759132307223     3.95277396921669
Sm     1.31759132307223     3.95277396921669     3.95277396921669
O     2.63518264614446     0.00000000000000     0.00000000000000
O     0.00000000000000     2.63518264614446     0.00000000000000
O     0.00000000000000     0.00000000000000     2.63518264614446
O     2.63518264614446     2.63518264614446     0.00000000000000
O     2.63518264614446     0.00000000000000     2.63518264614446
O     0.00000000000000     2.63518264614446     2.63518264614446