CRYSTAL
# Primitive lattice vectors in Angstrom
PRIMVEC
 3.49003901864723 0.00000000000000 2.01497496689828
 1.16334633954907 3.29044034225480 2.01497496689828
 0.00000000000000 0.00000000000000 4.02994993379656
# Cartesian coordinates in Angstrom.
PRIMCOORD
 3 1
Sm     1.16334633954907     0.82261008556370     2.01497496689828
Sm     3.49003901864723     2.46783025669110     6.04492490069484
O     0.00000000000000     0.00000000000000     0.00000000000000