CRYSTAL
# Primitive lattice vectors in Angstrom
PRIMVEC
 2.92688687265125 0.00000000000000 1.68983892381278
 0.97562895755042 2.75949540722345 1.68983892381278
 0.00000000000000 0.00000000000000 3.37967784762556
# Cartesian coordinates in Angstrom.
PRIMCOORD
 2 1
Sm     0.00000000000000     0.00000000000000     0.00000000000000
O     1.95125791510083     1.37974770361172     3.37967784762556