CRYSTAL
# Primitive lattice vectors in Angstrom
PRIMVEC
 5.27293187194258 0.00000000000000 0.00000000000000
 -0.00000000000000 5.27293187194258 0.00000000000000
 0.00000000000000 0.00000000000000 5.27293187194258
# Cartesian coordinates in Angstrom.
PRIMCOORD
 14 1
Sn     0.00000000000000     0.00000000000000     0.00000000000000
Sn     2.63646593597129     2.63646593597129     0.00000000000000
Sn     2.63646593597129     0.00000000000000     2.63646593597129
Sn     0.00000000000000     2.63646593597129     2.63646593597129
O     2.63646593597129     0.00000000000000     0.00000000000000
O     0.00000000000000     2.63646593597129     0.00000000000000
O     0.00000000000000     0.00000000000000     2.63646593597129
O     2.63646593597129     2.63646593597129     2.63646593597129
O     3.95469890395693     3.95469890395693     1.31823296798564
O     3.95469890395693     1.31823296798564     3.95469890395693
O     1.31823296798564     3.95469890395693     3.95469890395693
O     3.95469890395693     1.31823296798564     1.31823296798564
O     1.31823296798564     3.95469890395693     1.31823296798564
O     1.31823296798564     1.31823296798564     3.95469890395693