CRYSTAL
# Primitive lattice vectors in Angstrom
PRIMVEC
 4.03422829003309 0.00000000000000 0.00000000000000
 -0.00000000000000 4.03422829003309 0.00000000000000
 0.00000000000000 0.00000000000000 4.03422829003309
# Cartesian coordinates in Angstrom.
PRIMCOORD
 4 1
Sn     0.00000000000000     0.00000000000000     0.00000000000000
O     2.01711414501654     0.00000000000000     0.00000000000000
O     0.00000000000000     2.01711414501654     0.00000000000000
O     0.00000000000000     0.00000000000000     2.01711414501654