CRYSTAL
# Primitive lattice vectors in Angstrom
PRIMVEC
 3.80887964613996 0.00000000000000 2.19905768900979
 1.26962654871332 3.59104616867864 2.19905768900979
 0.00000000000000 0.00000000000000 4.39811537801959
# Cartesian coordinates in Angstrom.
PRIMCOORD
 3 1
Sn     1.26962654871332     0.89776154216966     2.19905768900979
Sn     3.80887964613996     2.69328462650899     6.59717306702938
O     0.00000000000000     0.00000000000000     0.00000000000000