CRYSTAL
# Primitive lattice vectors in Angstrom
PRIMVEC
 5.17680416429177 0.00000000000000 0.00000000000000
 -0.00000000000000 5.17680416429177 0.00000000000000
 0.00000000000000 0.00000000000000 5.17680416429177
# Cartesian coordinates in Angstrom.
PRIMCOORD
 10 1
Sn     1.29420104107294     1.29420104107294     1.29420104107294
Sn     3.88260312321883     3.88260312321883     1.29420104107294
Sn     3.88260312321883     1.29420104107294     3.88260312321883
Sn     1.29420104107294     3.88260312321883     3.88260312321883
O     2.58840208214589     0.00000000000000     0.00000000000000
O     0.00000000000000     2.58840208214589     0.00000000000000
O     0.00000000000000     0.00000000000000     2.58840208214589
O     2.58840208214589     2.58840208214589     0.00000000000000
O     2.58840208214589     0.00000000000000     2.58840208214589
O     0.00000000000000     2.58840208214589     2.58840208214589