CRYSTAL
# Primitive lattice vectors in Angstrom
PRIMVEC
 3.08554495268677 0.00000000000000 1.78144020903039
 1.02851498422892 2.90907967960098 1.78144020903039
 0.00000000000000 0.00000000000000 3.56288041806078
# Cartesian coordinates in Angstrom.
PRIMCOORD
 2 1
Sn     0.00000000000000     0.00000000000000     0.00000000000000
O     2.05702996845784     1.45453983980049     3.56288041806078