CRYSTAL
# Primitive lattice vectors in Angstrom
PRIMVEC
 3.11320411289317 0.00000000000000 1.79740923262112
 1.03773470429772 2.93515698592615 1.79740923262112
 0.00000000000000 0.00000000000000 3.59481846524224
# Cartesian coordinates in Angstrom.
PRIMCOORD
 3 1
Sn     0.00000000000000     0.00000000000000     0.00000000000000
O     1.03773470429772     0.73378924648154     1.79740923262112
O     3.11320411289317     2.20136773944461     5.39222769786336