CRYSTAL
# Primitive lattice vectors in Angstrom
PRIMVEC
 3.92058397396277 0.00000000000000 2.26355021274794
 1.30686132465425 3.69636201893384 2.26355021274794
 0.00000000000000 0.00000000000000 4.52710042549588
# Cartesian coordinates in Angstrom.
PRIMCOORD
 3 1
Sr     1.30686132465425     0.92409050473346     2.26355021274794
Sr     3.92058397396277     2.77227151420038     6.79065063824383
O     0.00000000000000     0.00000000000000     0.00000000000000