CRYSTAL
# Primitive lattice vectors in Angstrom
PRIMVEC
 4.71217500634509 0.00000000000000 0.00000000000000
 -0.00000000000000 4.71217500634509 0.00000000000000
 0.00000000000000 0.00000000000000 4.71217500634509
# Cartesian coordinates in Angstrom.
PRIMCOORD
 4 1
Sr     0.00000000000000     0.00000000000000     0.00000000000000
O     2.35608750317254     0.00000000000000     0.00000000000000
O     0.00000000000000     2.35608750317254     0.00000000000000
O     0.00000000000000     0.00000000000000     2.35608750317254