CRYSTAL
# Primitive lattice vectors in Angstrom
PRIMVEC
 3.54254675872286 0.00000000000000 2.04529032476548
 1.18084891957428 3.33994511435114 2.04529032476548
 0.00000000000000 0.00000000000000 4.09058064953095
# Cartesian coordinates in Angstrom.
PRIMCOORD
 3 1
Sr     0.00000000000000     0.00000000000000     0.00000000000000
O     1.18084891957428     0.83498627858779     2.04529032476548
O     3.54254675872286     2.50495883576336     6.13587097429644