CRYSTAL
# Primitive lattice vectors in Angstrom
PRIMVEC
 5.70987314476162 0.00000000000000 0.00000000000000
 -0.00000000000000 5.70987314476162 0.00000000000000
 0.00000000000000 0.00000000000000 5.70987314476162
# Cartesian coordinates in Angstrom.
PRIMCOORD
 10 1
Sr     1.42746828619040     1.42746828619040     1.42746828619040
Sr     4.28240485857121     4.28240485857121     1.42746828619040
Sr     4.28240485857121     1.42746828619040     4.28240485857121
Sr     1.42746828619040     4.28240485857121     4.28240485857121
O     2.85493657238081     0.00000000000000     0.00000000000000
O     0.00000000000000     2.85493657238081     0.00000000000000
O     0.00000000000000     0.00000000000000     2.85493657238081
O     2.85493657238081     2.85493657238081     0.00000000000000
O     2.85493657238081     0.00000000000000     2.85493657238081
O     0.00000000000000     2.85493657238081     2.85493657238081