CRYSTAL
# Primitive lattice vectors in Angstrom
PRIMVEC
 5.68530755963855 0.00000000000000 0.00000000000000
 -0.00000000000000 5.68530755963855 0.00000000000000
 0.00000000000000 0.00000000000000 5.68530755963855
# Cartesian coordinates in Angstrom.
PRIMCOORD
 14 1
Sr     0.00000000000000     0.00000000000000     0.00000000000000
Sr     2.84265377981928     2.84265377981928     0.00000000000000
Sr     2.84265377981928     0.00000000000000     2.84265377981928
Sr     0.00000000000000     2.84265377981928     2.84265377981928
O     2.84265377981928     0.00000000000000     0.00000000000000
O     0.00000000000000     2.84265377981928     0.00000000000000
O     0.00000000000000     0.00000000000000     2.84265377981928
O     2.84265377981928     2.84265377981928     2.84265377981928
O     4.26398066972891     4.26398066972891     1.42132688990964
O     4.26398066972891     1.42132688990964     4.26398066972891
O     1.42132688990964     4.26398066972891     4.26398066972891
O     4.26398066972891     1.42132688990964     1.42132688990964
O     1.42132688990964     4.26398066972891     1.42132688990964
O     1.42132688990964     1.42132688990964     4.26398066972891