CRYSTAL
# Primitive lattice vectors in Angstrom
PRIMVEC
 3.13686982173360 0.00000000000000 1.81107263599070
 1.04562327391120 2.95746923019635 1.81107263599070
 0.00000000000000 0.00000000000000 3.62214527198141
# Cartesian coordinates in Angstrom.
PRIMCOORD
 2 1
Sr     0.00000000000000     0.00000000000000     0.00000000000000
O     2.09124654782240     1.47873461509817     3.62214527198141