CRYSTAL
# Primitive lattice vectors in Angstrom
PRIMVEC
 3.03386672700724 0.00000000000000 1.75160377152308
 1.01128890900241 2.86035698117741 1.75160377152308
 0.00000000000000 0.00000000000000 3.50320754304615
# Cartesian coordinates in Angstrom.
PRIMCOORD
 3 1
Ta     0.00000000000000     0.00000000000000     0.00000000000000
O     1.01128890900241     0.71508924529435     1.75160377152308
O     3.03386672700724     2.14526773588306     5.25481131456924