CRYSTAL
# Primitive lattice vectors in Angstrom
PRIMVEC
 3.92190396048434 0.00000000000000 0.00000000000000
 -0.00000000000000 3.92190396048434 0.00000000000000
 0.00000000000000 0.00000000000000 3.92190396048434
# Cartesian coordinates in Angstrom.
PRIMCOORD
 4 1
Ta     0.00000000000000     0.00000000000000     0.00000000000000
O     1.96095198024217     0.00000000000000     0.00000000000000
O     0.00000000000000     1.96095198024217     0.00000000000000
O     0.00000000000000     0.00000000000000     1.96095198024217