CRYSTAL
# Primitive lattice vectors in Angstrom
PRIMVEC
 3.41199550178409 0.00000000000000 1.96991652142884
 1.13733183392803 3.21686020891936 1.96991652142884
 0.00000000000000 0.00000000000000 3.93983304285767
# Cartesian coordinates in Angstrom.
PRIMCOORD
 3 1
Ta     1.13733183392803     0.80421505222984     1.96991652142884
Ta     3.41199550178409     2.41264515668953     5.90974956428651
O     0.00000000000000     0.00000000000000     0.00000000000000