CRYSTAL
# Primitive lattice vectors in Angstrom
PRIMVEC
 5.02640257699382 0.00000000000000 0.00000000000000
 -0.00000000000000 5.02640257699382 0.00000000000000
 0.00000000000000 0.00000000000000 5.02640257699382
# Cartesian coordinates in Angstrom.
PRIMCOORD
 14 1
Ta     0.00000000000000     0.00000000000000     0.00000000000000
Ta     2.51320128849691     2.51320128849691     0.00000000000000
Ta     2.51320128849691     0.00000000000000     2.51320128849691
Ta     0.00000000000000     2.51320128849691     2.51320128849691
O     2.51320128849691     0.00000000000000     0.00000000000000
O     0.00000000000000     2.51320128849691     0.00000000000000
O     0.00000000000000     0.00000000000000     2.51320128849691
O     2.51320128849691     2.51320128849691     2.51320128849691
O     3.76980193274537     3.76980193274537     1.25660064424846
O     3.76980193274537     1.25660064424846     3.76980193274537
O     1.25660064424846     3.76980193274537     3.76980193274537
O     3.76980193274537     1.25660064424846     1.25660064424846
O     1.25660064424846     3.76980193274537     1.25660064424846
O     1.25660064424846     1.25660064424846     3.76980193274537