CRYSTAL
# Primitive lattice vectors in Angstrom
PRIMVEC
 2.72223765203716 0.00000000000000 1.57168464120178
 0.90741255067905 2.56655027167576 1.57168464120178
 0.00000000000000 0.00000000000000 3.14336928240357
# Cartesian coordinates in Angstrom.
PRIMCOORD
 2 1
Ta     0.00000000000000     0.00000000000000     0.00000000000000
O     1.81482510135810     1.28327513583787     3.14336928240357