CRYSTAL
# Primitive lattice vectors in Angstrom
PRIMVEC
 4.87949327514035 0.00000000000000 0.00000000000000
 -0.00000000000000 4.87949327514035 0.00000000000000
 0.00000000000000 0.00000000000000 4.87949327514035
# Cartesian coordinates in Angstrom.
PRIMCOORD
 10 1
Ta     1.21987331878509     1.21987331878509     1.21987331878509
Ta     3.65961995635527     3.65961995635527     1.21987331878509
Ta     3.65961995635527     1.21987331878509     3.65961995635527
Ta     1.21987331878509     3.65961995635527     3.65961995635527
O     2.43974663757018     0.00000000000000     0.00000000000000
O     0.00000000000000     2.43974663757018     0.00000000000000
O     0.00000000000000     0.00000000000000     2.43974663757018
O     2.43974663757018     2.43974663757018     0.00000000000000
O     2.43974663757018     0.00000000000000     2.43974663757018
O     0.00000000000000     2.43974663757018     2.43974663757018