CRYSTAL
# Primitive lattice vectors in Angstrom
PRIMVEC
 3.19253528384919 0.00000000000000 1.84321110552770
 1.06417842794973 3.00995113118277 1.84321110552770
 0.00000000000000 0.00000000000000 3.68642221105541
# Cartesian coordinates in Angstrom.
PRIMCOORD
 3 1
Tb     0.00000000000000     0.00000000000000     0.00000000000000
O     1.06417842794973     0.75248778279569     1.84321110552770
O     3.19253528384919     2.25746334838708     5.52963331658312