CRYSTAL
# Primitive lattice vectors in Angstrom
PRIMVEC
 5.22113043271344 0.00000000000000 0.00000000000000
 -0.00000000000000 5.22113043271344 0.00000000000000
 0.00000000000000 0.00000000000000 5.22113043271344
# Cartesian coordinates in Angstrom.
PRIMCOORD
 10 1
Tb     1.30528260817836     1.30528260817836     1.30528260817836
Tb     3.91584782453508     3.91584782453508     1.30528260817836
Tb     3.91584782453508     1.30528260817836     3.91584782453508
Tb     1.30528260817836     3.91584782453508     3.91584782453508
O     2.61056521635672     0.00000000000000     0.00000000000000
O     0.00000000000000     2.61056521635672     0.00000000000000
O     0.00000000000000     0.00000000000000     2.61056521635672
O     2.61056521635672     2.61056521635672     0.00000000000000
O     2.61056521635672     0.00000000000000     2.61056521635672
O     0.00000000000000     2.61056521635672     2.61056521635672