CRYSTAL
# Primitive lattice vectors in Angstrom
PRIMVEC
 2.90705946551212 0.00000000000000 1.67839156496367
 0.96901982183737 2.74080194850154 1.67839156496367
 0.00000000000000 0.00000000000000 3.35678312992733
# Cartesian coordinates in Angstrom.
PRIMCOORD
 2 1
Tb     0.00000000000000     0.00000000000000     0.00000000000000
O     1.93803964367474     1.37040097425077     3.35678312992733