CRYSTAL
# Primitive lattice vectors in Angstrom
PRIMVEC
 5.28676187597105 0.00000000000000 0.00000000000000
 -0.00000000000000 5.28676187597105 0.00000000000000
 0.00000000000000 0.00000000000000 5.28676187597105
# Cartesian coordinates in Angstrom.
PRIMCOORD
 14 1
Tb     0.00000000000000     0.00000000000000     0.00000000000000
Tb     2.64338093798552     2.64338093798552     0.00000000000000
Tb     2.64338093798552     0.00000000000000     2.64338093798552
Tb     0.00000000000000     2.64338093798552     2.64338093798552
O     2.64338093798552     0.00000000000000     0.00000000000000
O     0.00000000000000     2.64338093798552     0.00000000000000
O     0.00000000000000     0.00000000000000     2.64338093798552
O     2.64338093798552     2.64338093798552     2.64338093798552
O     3.96507140697829     3.96507140697829     1.32169046899276
O     3.96507140697829     1.32169046899276     3.96507140697829
O     1.32169046899276     3.96507140697829     3.96507140697829
O     3.96507140697829     1.32169046899276     1.32169046899276
O     1.32169046899276     3.96507140697829     1.32169046899276
O     1.32169046899276     1.32169046899276     3.96507140697829