CRYSTAL
# Primitive lattice vectors in Angstrom
PRIMVEC
 4.08275753548350 0.00000000000000 0.00000000000000
 -0.00000000000000 4.08275753548350 0.00000000000000
 0.00000000000000 0.00000000000000 4.08275753548350
# Cartesian coordinates in Angstrom.
PRIMCOORD
 4 1
Tb     0.00000000000000     0.00000000000000     0.00000000000000
O     2.04137876774175     0.00000000000000     0.00000000000000
O     0.00000000000000     2.04137876774175     0.00000000000000
O     0.00000000000000     0.00000000000000     2.04137876774175