CRYSTAL
# Primitive lattice vectors in Angstrom
PRIMVEC
 3.50989295660599 0.00000000000000 2.02643764332324
 1.16996431886866 3.30915881447332 2.02643764332324
 0.00000000000000 0.00000000000000 4.05287528664648
# Cartesian coordinates in Angstrom.
PRIMCOORD
 3 1
Tb     1.16996431886866     0.82728970361833     2.02643764332324
Tb     3.50989295660599     2.48186911085499     6.07931292996972
O     0.00000000000000     0.00000000000000     0.00000000000000