CRYSTAL
# Primitive lattice vectors in Angstrom
PRIMVEC
 4.72248379876582 0.00000000000000 0.00000000000000
 -0.00000000000000 4.72248379876582 0.00000000000000
 0.00000000000000 0.00000000000000 4.72248379876582
# Cartesian coordinates in Angstrom.
PRIMCOORD
 10 1
Tc     1.18062094969145     1.18062094969145     1.18062094969145
Tc     3.54186284907437     3.54186284907437     1.18062094969145
Tc     3.54186284907437     1.18062094969145     3.54186284907437
Tc     1.18062094969145     3.54186284907437     3.54186284907437
O     2.36124189938291     0.00000000000000     0.00000000000000
O     0.00000000000000     2.36124189938291     0.00000000000000
O     0.00000000000000     0.00000000000000     2.36124189938291
O     2.36124189938291     2.36124189938291     0.00000000000000
O     2.36124189938291     0.00000000000000     2.36124189938291
O     0.00000000000000     2.36124189938291     2.36124189938291