CRYSTAL
# Primitive lattice vectors in Angstrom
PRIMVEC
 3.72764175746118 0.00000000000000 0.00000000000000
 -0.00000000000000 3.72764175746118 0.00000000000000
 0.00000000000000 0.00000000000000 3.72764175746118
# Cartesian coordinates in Angstrom.
PRIMCOORD
 4 1
Tc     0.00000000000000     0.00000000000000     0.00000000000000
O     1.86382087873059     0.00000000000000     0.00000000000000
O     0.00000000000000     1.86382087873059     0.00000000000000
O     0.00000000000000     0.00000000000000     1.86382087873059