CRYSTAL
# Primitive lattice vectors in Angstrom
PRIMVEC
 4.92755332110507 0.00000000000000 0.00000000000000
 -0.00000000000000 4.92755332110507 0.00000000000000
 0.00000000000000 0.00000000000000 4.92755332110507
# Cartesian coordinates in Angstrom.
PRIMCOORD
 14 1
Tc     0.00000000000000     0.00000000000000     0.00000000000000
Tc     2.46377666055254     2.46377666055254     0.00000000000000
Tc     2.46377666055254     0.00000000000000     2.46377666055254
Tc     0.00000000000000     2.46377666055254     2.46377666055254
O     2.46377666055254     0.00000000000000     0.00000000000000
O     0.00000000000000     2.46377666055254     0.00000000000000
O     0.00000000000000     0.00000000000000     2.46377666055254
O     2.46377666055254     2.46377666055254     2.46377666055254
O     3.69566499082880     3.69566499082880     1.23188833027627
O     3.69566499082880     1.23188833027627     3.69566499082880
O     1.23188833027627     3.69566499082880     3.69566499082880
O     3.69566499082880     1.23188833027627     1.23188833027627
O     1.23188833027627     3.69566499082880     1.23188833027627
O     1.23188833027627     1.23188833027627     3.69566499082880