CRYSTAL
# Primitive lattice vectors in Angstrom
PRIMVEC
 2.65270878299920 0.00000000000000 1.53154212994627
 0.88423626099973 2.50099782529579 1.53154212994627
 0.00000000000000 0.00000000000000 3.06308425989254
# Cartesian coordinates in Angstrom.
PRIMCOORD
 2 1
Tc     0.00000000000000     0.00000000000000     0.00000000000000
O     1.76847252199947     1.25049891264789     3.06308425989254