CRYSTAL
# Primitive lattice vectors in Angstrom
PRIMVEC
 2.94191481084200 0.00000000000000 1.69851530797257
 0.98063827028066 2.77366388322602 1.69851530797257
 0.00000000000000 0.00000000000000 3.39703061594515
# Cartesian coordinates in Angstrom.
PRIMCOORD
 3 1
Tc     0.00000000000000     0.00000000000000     0.00000000000000
O     0.98063827028066     0.69341597080651     1.69851530797257
O     2.94191481084200     2.08024791241952     5.09554592391773