CRYSTAL
# Primitive lattice vectors in Angstrom
PRIMVEC
 3.23455729986227 0.00000000000000 1.86747252778475
 1.07818576662075 3.04956986782542 1.86747252778475
 0.00000000000000 0.00000000000000 3.73494505556951
# Cartesian coordinates in Angstrom.
PRIMCOORD
 3 1
Tc     1.07818576662076     0.76239246695635     1.86747252778475
Tc     3.23455729986227     2.28717740086906     5.60241758335426
O     0.00000000000000     0.00000000000000     0.00000000000000