CRYSTAL
# Primitive lattice vectors in Angstrom
PRIMVEC
 3.13127899620276 0.00000000000000 1.80784477136548
 1.04375966540092 2.95219814933597 1.80784477136548
 0.00000000000000 0.00000000000000 3.61568954273097
# Cartesian coordinates in Angstrom.
PRIMCOORD
 2 1
Te     0.00000000000000     0.00000000000000     0.00000000000000
O     2.08751933080184     1.47609907466798     3.61568954273097