CRYSTAL
# Primitive lattice vectors in Angstrom
PRIMVEC
 3.80010389289917 0.00000000000000 2.19399100551388
 1.26670129763305 3.58277230917654 2.19399100551388
 0.00000000000000 0.00000000000000 4.38798201102777
# Cartesian coordinates in Angstrom.
PRIMCOORD
 3 1
Te     1.26670129763305     0.89569307729413     2.19399100551388
Te     3.80010389289917     2.68707923188241     6.58197301654165
O     0.00000000000000     0.00000000000000     0.00000000000000