CRYSTAL
# Primitive lattice vectors in Angstrom
PRIMVEC
 3.26035737750230 0.00000000000000 1.88236820955533
 1.08678579250076 3.07389441429795 1.88236820955533
 0.00000000000000 0.00000000000000 3.76473641911066
# Cartesian coordinates in Angstrom.
PRIMCOORD
 3 1
Te     0.00000000000000     0.00000000000000     0.00000000000000
O     1.08678579250076     0.76847360357449     1.88236820955533
O     3.26035737750230     2.30542081072346     5.64710462866600