CRYSTAL
# Primitive lattice vectors in Angstrom
PRIMVEC
 5.34335570491264 0.00000000000000 0.00000000000000
 -0.00000000000000 5.34335570491264 0.00000000000000
 0.00000000000000 0.00000000000000 5.34335570491264
# Cartesian coordinates in Angstrom.
PRIMCOORD
 14 1
Te     0.00000000000000     0.00000000000000     0.00000000000000
Te     2.67167785245632     2.67167785245632     0.00000000000000
Te     2.67167785245632     0.00000000000000     2.67167785245632
Te     0.00000000000000     2.67167785245632     2.67167785245632
O     2.67167785245632     0.00000000000000     0.00000000000000
O     0.00000000000000     2.67167785245632     0.00000000000000
O     0.00000000000000     0.00000000000000     2.67167785245632
O     2.67167785245632     2.67167785245632     2.67167785245632
O     4.00751677868448     4.00751677868448     1.33583892622816
O     4.00751677868448     1.33583892622816     4.00751677868448
O     1.33583892622816     4.00751677868448     4.00751677868448
O     4.00751677868448     1.33583892622816     1.33583892622816
O     1.33583892622816     4.00751677868448     1.33583892622816
O     1.33583892622816     1.33583892622816     4.00751677868448