CRYSTAL
# Primitive lattice vectors in Angstrom
PRIMVEC
 3.80566071982595 0.00000000000000 0.00000000000000
 -0.00000000000000 3.80566071982595 0.00000000000000
 0.00000000000000 0.00000000000000 3.80566071982595
# Cartesian coordinates in Angstrom.
PRIMCOORD
 4 1
Te     0.00000000000000     0.00000000000000     0.00000000000000
O     1.90283035991297     0.00000000000000     0.00000000000000
O     0.00000000000000     1.90283035991297     0.00000000000000
O     0.00000000000000     0.00000000000000     1.90283035991297