CRYSTAL
# Primitive lattice vectors in Angstrom
PRIMVEC
 5.33044864767057 0.00000000000000 0.00000000000000
 -0.00000000000000 5.33044864767057 0.00000000000000
 0.00000000000000 0.00000000000000 5.33044864767057
# Cartesian coordinates in Angstrom.
PRIMCOORD
 10 1
Te     1.33261216191764     1.33261216191764     1.33261216191764
Te     3.99783648575293     3.99783648575293     1.33261216191764
Te     3.99783648575293     1.33261216191764     3.99783648575293
Te     1.33261216191764     3.99783648575293     3.99783648575293
O     2.66522432383529     0.00000000000000     0.00000000000000
O     0.00000000000000     2.66522432383529     0.00000000000000
O     0.00000000000000     0.00000000000000     2.66522432383529
O     2.66522432383529     2.66522432383529     0.00000000000000
O     2.66522432383529     0.00000000000000     2.66522432383529
O     0.00000000000000     2.66522432383529     2.66522432383529