CRYSTAL
# Primitive lattice vectors in Angstrom
PRIMVEC
 4.32504780592384 0.00000000000000 0.00000000000000
 -0.00000000000000 4.32504780592384 0.00000000000000
 0.00000000000000 0.00000000000000 4.32504780592384
# Cartesian coordinates in Angstrom.
PRIMCOORD
 4 1
Th     0.00000000000000     0.00000000000000     0.00000000000000
O     2.16252390296191     0.00000000000000     0.00000000000000
O     0.00000000000000     2.16252390296191     0.00000000000000
O     0.00000000000000     0.00000000000000     2.16252390296191