CRYSTAL
# Primitive lattice vectors in Angstrom
PRIMVEC
 5.55668151563577 0.00000000000000 0.00000000000000
 -0.00000000000000 5.55668151563577 0.00000000000000
 0.00000000000000 0.00000000000000 5.55668151563577
# Cartesian coordinates in Angstrom.
PRIMCOORD
 14 1
Th     0.00000000000000     0.00000000000000     0.00000000000000
Th     2.77834075781788     2.77834075781788     0.00000000000000
Th     2.77834075781788     0.00000000000000     2.77834075781788
Th     0.00000000000000     2.77834075781788     2.77834075781788
O     2.77834075781788     0.00000000000000     0.00000000000000
O     0.00000000000000     2.77834075781788     0.00000000000000
O     0.00000000000000     0.00000000000000     2.77834075781788
O     2.77834075781788     2.77834075781788     2.77834075781788
O     4.16751113672683     4.16751113672683     1.38917037890894
O     4.16751113672683     1.38917037890894     4.16751113672683
O     1.38917037890894     4.16751113672683     4.16751113672683
O     4.16751113672683     1.38917037890894     1.38917037890894
O     1.38917037890894     4.16751113672683     1.38917037890894
O     1.38917037890894     1.38917037890894     4.16751113672683