CRYSTAL
# Primitive lattice vectors in Angstrom
PRIMVEC
 5.53128678752288 0.00000000000000 0.00000000000000
 -0.00000000000000 5.53128678752288 0.00000000000000
 0.00000000000000 0.00000000000000 5.53128678752288
# Cartesian coordinates in Angstrom.
PRIMCOORD
 10 1
Th     1.38282169688072     1.38282169688072     1.38282169688072
Th     4.14846509064216     4.14846509064216     1.38282169688072
Th     4.14846509064216     1.38282169688072     4.14846509064216
Th     1.38282169688072     4.14846509064216     4.14846509064216
O     2.76564339376145     0.00000000000000     0.00000000000000
O     0.00000000000000     2.76564339376145     0.00000000000000
O     0.00000000000000     0.00000000000000     2.76564339376145
O     2.76564339376145     2.76564339376145     0.00000000000000
O     2.76564339376145     0.00000000000000     2.76564339376145
O     0.00000000000000     2.76564339376145     2.76564339376145