CRYSTAL
# Primitive lattice vectors in Angstrom
PRIMVEC
 3.08432503172747 0.00000000000000 1.78073588733615
 1.02810834390916 2.90792952709054 1.78073588733615
 0.00000000000000 0.00000000000000 3.56147177467231
# Cartesian coordinates in Angstrom.
PRIMCOORD
 2 1
Th     0.00000000000000     0.00000000000000     0.00000000000000
O     2.05621668781831     1.45396476354527     3.56147177467231