CRYSTAL
# Primitive lattice vectors in Angstrom
PRIMVEC
 3.90777480309077 0.00000000000000 2.25615483449689
 1.30259160103025 3.68428541682054 2.25615483449689
 0.00000000000000 0.00000000000000 4.51230966899379
# Cartesian coordinates in Angstrom.
PRIMCOORD
 3 1
Th     1.30259160103025     0.92107135420513     2.25615483449689
Th     3.90777480309077     2.76321406261541     6.76846450349068
O     0.00000000000000     0.00000000000000     0.00000000000000