CRYSTAL
# Primitive lattice vectors in Angstrom
PRIMVEC
 3.40428439053563 0.00000000000000 1.96546450927379
 1.13476146351187 3.20959010351368 1.96546450927379
 0.00000000000000 0.00000000000000 3.93092901854757
# Cartesian coordinates in Angstrom.
PRIMCOORD
 3 1
Th     0.00000000000000     0.00000000000000     0.00000000000000
O     1.13476146351187     0.80239752587842     1.96546450927379
O     3.40428439053563     2.40719257763526     5.89639352782137