CRYSTAL
# Primitive lattice vectors in Angstrom
PRIMVEC
 4.71599819009127 0.00000000000000 0.00000000000000
 -0.00000000000000 4.71599819009127 0.00000000000000
 0.00000000000000 0.00000000000000 4.71599819009127
# Cartesian coordinates in Angstrom.
PRIMCOORD
 10 1
Ti     1.17899954752281     1.17899954752281     1.17899954752281
Ti     3.53699864256845     3.53699864256845     1.17899954752281
Ti     3.53699864256845     1.17899954752281     3.53699864256845
Ti     1.17899954752281     3.53699864256845     3.53699864256845
O     2.35799909504564     0.00000000000000     0.00000000000000
O     0.00000000000000     2.35799909504564     0.00000000000000
O     0.00000000000000     0.00000000000000     2.35799909504564
O     2.35799909504564     2.35799909504564     0.00000000000000
O     2.35799909504564     0.00000000000000     2.35799909504564
O     0.00000000000000     2.35799909504564     2.35799909504564