CRYSTAL
# Primitive lattice vectors in Angstrom
PRIMVEC
 3.16929094602031 0.00000000000000 1.82979098082507
 1.05643031534010 2.98803615931212 1.82979098082507
 0.00000000000000 0.00000000000000 3.65958196165015
# Cartesian coordinates in Angstrom.
PRIMCOORD
 3 1
Ti     1.05643031534010     0.74700903982803     1.82979098082507
Ti     3.16929094602031     2.24102711948409     5.48937294247522
O     0.00000000000000     0.00000000000000     0.00000000000000