CRYSTAL
# Primitive lattice vectors in Angstrom
PRIMVEC
 2.92575325283441 0.00000000000000 1.68918442810637
 0.97525108427813 2.75842662021041 1.68918442810637
 0.00000000000000 0.00000000000000 3.37836885621273
# Cartesian coordinates in Angstrom.
PRIMCOORD
 3 1
Ti     0.00000000000000     0.00000000000000     0.00000000000000
O     0.97525108427813     0.68960665505260     1.68918442810637
O     2.92575325283441     2.06881996515781     5.06755328431911