CRYSTAL
# Primitive lattice vectors in Angstrom
PRIMVEC
 2.58643885717469 0.00000000000000 1.49328117043231
 0.86214628572490 2.43851794004348 1.49328117043231
 0.00000000000000 0.00000000000000 2.98656234086463
# Cartesian coordinates in Angstrom.
PRIMCOORD
 2 1
Ti     0.00000000000000     0.00000000000000     0.00000000000000
O     1.72429257144979     1.21925897002174     2.98656234086463