CRYSTAL
# Primitive lattice vectors in Angstrom
PRIMVEC
 4.96630045192868 0.00000000000000 0.00000000000000
 -0.00000000000000 4.96630045192868 0.00000000000000
 0.00000000000000 0.00000000000000 4.96630045192868
# Cartesian coordinates in Angstrom.
PRIMCOORD
 14 1
Ti     0.00000000000000     0.00000000000000     0.00000000000000
Ti     2.48315022596434     2.48315022596434     0.00000000000000
Ti     2.48315022596434     0.00000000000000     2.48315022596434
Ti     0.00000000000000     2.48315022596434     2.48315022596434
O     2.48315022596434     0.00000000000000     0.00000000000000
O     0.00000000000000     2.48315022596434     0.00000000000000
O     0.00000000000000     0.00000000000000     2.48315022596434
O     2.48315022596434     2.48315022596434     2.48315022596434
O     3.72472533894651     3.72472533894651     1.24157511298217
O     3.72472533894651     1.24157511298217     3.72472533894651
O     1.24157511298217     3.72472533894651     3.72472533894651
O     3.72472533894651     1.24157511298217     1.24157511298217
O     1.24157511298217     3.72472533894651     1.24157511298217
O     1.24157511298217     1.24157511298217     3.72472533894651