CRYSTAL
# Primitive lattice vectors in Angstrom
PRIMVEC
 3.81863211947985 0.00000000000000 0.00000000000000
 -0.00000000000000 3.81863211947985 0.00000000000000
 0.00000000000000 0.00000000000000 3.81863211947985
# Cartesian coordinates in Angstrom.
PRIMCOORD
 4 1
Ti     0.00000000000000     0.00000000000000     0.00000000000000
O     1.90931605973992     0.00000000000000     0.00000000000000
O     0.00000000000000     1.90931605973992     0.00000000000000
O     0.00000000000000     0.00000000000000     1.90931605973992