CRYSTAL
# Primitive lattice vectors in Angstrom
PRIMVEC
 4.21337274085101 0.00000000000000 0.00000000000000
 -0.00000000000000 4.21337274085101 0.00000000000000
 0.00000000000000 0.00000000000000 4.21337274085101
# Cartesian coordinates in Angstrom.
PRIMCOORD
 4 1
Tl     0.00000000000000     0.00000000000000     0.00000000000000
O     2.10668637042550     0.00000000000000     0.00000000000000
O     0.00000000000000     2.10668637042550     0.00000000000000
O     0.00000000000000     0.00000000000000     2.10668637042550