CRYSTAL
# Primitive lattice vectors in Angstrom
PRIMVEC
 3.08641709611873 0.00000000000000 1.78194374127561
 1.02880569870624 2.90990194431419 1.78194374127561
 0.00000000000000 0.00000000000000 3.56388748255121
# Cartesian coordinates in Angstrom.
PRIMCOORD
 2 1
Tl     0.00000000000000     0.00000000000000     0.00000000000000
O     2.05761139741248     1.45495097215709     3.56388748255121