CRYSTAL
# Primitive lattice vectors in Angstrom
PRIMVEC
 5.33378714074306 0.00000000000000 0.00000000000000
 -0.00000000000000 5.33378714074306 0.00000000000000
 0.00000000000000 0.00000000000000 5.33378714074306
# Cartesian coordinates in Angstrom.
PRIMCOORD
 10 1
Tl     1.33344678518576     1.33344678518576     1.33344678518576
Tl     4.00034035555730     4.00034035555730     1.33344678518576
Tl     4.00034035555730     1.33344678518576     4.00034035555730
Tl     1.33344678518576     4.00034035555730     4.00034035555730
O     2.66689357037153     0.00000000000000     0.00000000000000
O     0.00000000000000     2.66689357037153     0.00000000000000
O     0.00000000000000     0.00000000000000     2.66689357037153
O     2.66689357037153     2.66689357037153     0.00000000000000
O     2.66689357037153     0.00000000000000     2.66689357037153
O     0.00000000000000     2.66689357037153     2.66689357037153