CRYSTAL
# Primitive lattice vectors in Angstrom
PRIMVEC
 3.28912633836447 0.00000000000000 1.89897797685341
 1.09637544612149 3.10101805071573 1.89897797685341
 0.00000000000000 0.00000000000000 3.79795595370682
# Cartesian coordinates in Angstrom.
PRIMCOORD
 3 1
Tl     0.00000000000000     0.00000000000000     0.00000000000000
O     1.09637544612149     0.77525451267893     1.89897797685341
O     3.28912633836447     2.32576353803679     5.69693393056024