CRYSTAL
# Primitive lattice vectors in Angstrom
PRIMVEC
 3.93897924510826 0.00000000000000 2.27417072749560
 1.31299308170275 3.71370524689216 2.27417072749560
 0.00000000000000 0.00000000000000 4.54834145499121
# Cartesian coordinates in Angstrom.
PRIMCOORD
 3 1
Tl     1.31299308170275     0.92842631172304     2.27417072749560
Tl     3.93897924510826     2.78527893516912     6.82251218248681
O     0.00000000000000     0.00000000000000     0.00000000000000