CRYSTAL
# Primitive lattice vectors in Angstrom
PRIMVEC
 5.45420359172790 0.00000000000000 0.00000000000000
 -0.00000000000000 5.45420359172790 0.00000000000000
 0.00000000000000 0.00000000000000 5.45420359172790
# Cartesian coordinates in Angstrom.
PRIMCOORD
 14 1
Tl     0.00000000000000     0.00000000000000     0.00000000000000
Tl     2.72710179586395     2.72710179586395     0.00000000000000
Tl     2.72710179586395     0.00000000000000     2.72710179586395
Tl     0.00000000000000     2.72710179586395     2.72710179586395
O     2.72710179586395     0.00000000000000     0.00000000000000
O     0.00000000000000     2.72710179586395     0.00000000000000
O     0.00000000000000     0.00000000000000     2.72710179586395
O     2.72710179586395     2.72710179586395     2.72710179586395
O     4.09065269379593     4.09065269379593     1.36355089793198
O     4.09065269379593     1.36355089793198     4.09065269379593
O     1.36355089793198     4.09065269379593     4.09065269379593
O     4.09065269379593     1.36355089793198     1.36355089793198
O     1.36355089793198     4.09065269379593     1.36355089793198
O     1.36355089793198     1.36355089793198     4.09065269379593