CRYSTAL
# Primitive lattice vectors in Angstrom
PRIMVEC
 3.18940722632914 0.00000000000000 1.84140512067647
 1.06313574210971 3.00700197027029 1.84140512067647
 0.00000000000000 0.00000000000000 3.68281024135293
# Cartesian coordinates in Angstrom.
PRIMCOORD
 3 1
Tm     0.00000000000000     0.00000000000000     0.00000000000000
O     1.06313574210971     0.75175049256757     1.84140512067647
O     3.18940722632914     2.25525147770272     5.52421536202941