CRYSTAL
# Primitive lattice vectors in Angstrom
PRIMVEC
 2.89400072366198 0.00000000000000 1.67085209684121
 0.96466690788733 2.72849004861355 1.67085209684121
 0.00000000000000 0.00000000000000 3.34170419368243
# Cartesian coordinates in Angstrom.
PRIMCOORD
 2 1
Tm     0.00000000000000     0.00000000000000     0.00000000000000
O     1.92933381577465     1.36424502430677     3.34170419368243