CRYSTAL
# Primitive lattice vectors in Angstrom
PRIMVEC
 5.19909095852534 0.00000000000000 0.00000000000000
 -0.00000000000000 5.19909095852534 0.00000000000000
 0.00000000000000 0.00000000000000 5.19909095852534
# Cartesian coordinates in Angstrom.
PRIMCOORD
 10 1
Tm     1.29977273963133     1.29977273963133     1.29977273963133
Tm     3.89931821889401     3.89931821889401     1.29977273963133
Tm     3.89931821889401     1.29977273963133     3.89931821889401
Tm     1.29977273963133     3.89931821889401     3.89931821889401
O     2.59954547926267     0.00000000000000     0.00000000000000
O     0.00000000000000     2.59954547926267     0.00000000000000
O     0.00000000000000     0.00000000000000     2.59954547926267
O     2.59954547926267     2.59954547926267     0.00000000000000
O     2.59954547926267     0.00000000000000     2.59954547926267
O     0.00000000000000     2.59954547926267     2.59954547926267