CRYSTAL
# Primitive lattice vectors in Angstrom
PRIMVEC
 3.58661466670875 0.00000000000000 2.07073294330376
 1.19553822223625 3.38149273644384 2.07073294330376
 0.00000000000000 0.00000000000000 4.14146588660751
# Cartesian coordinates in Angstrom.
PRIMCOORD
 3 1
Tm     1.19553822223625     0.84537318411096     2.07073294330376
Tm     3.58661466670875     2.53611955233289     6.21219882991127
O     0.00000000000000     0.00000000000000     0.00000000000000