CRYSTAL
# Primitive lattice vectors in Angstrom
PRIMVEC
 5.29794105516830 0.00000000000000 0.00000000000000
 -0.00000000000000 5.29794105516830 0.00000000000000
 0.00000000000000 0.00000000000000 5.29794105516830
# Cartesian coordinates in Angstrom.
PRIMCOORD
 14 1
Tm     0.00000000000000     0.00000000000000     0.00000000000000
Tm     2.64897052758415     2.64897052758415     0.00000000000000
Tm     2.64897052758415     0.00000000000000     2.64897052758415
Tm     0.00000000000000     2.64897052758415     2.64897052758415
O     2.64897052758415     0.00000000000000     0.00000000000000
O     0.00000000000000     2.64897052758415     0.00000000000000
O     0.00000000000000     0.00000000000000     2.64897052758415
O     2.64897052758415     2.64897052758415     2.64897052758415
O     3.97345579137622     3.97345579137622     1.32448526379207
O     3.97345579137622     1.32448526379207     3.97345579137622
O     1.32448526379207     3.97345579137622     3.97345579137622
O     3.97345579137622     1.32448526379207     1.32448526379207
O     1.32448526379207     3.97345579137622     1.32448526379207
O     1.32448526379207     1.32448526379207     3.97345579137622