CRYSTAL
# Primitive lattice vectors in Angstrom
PRIMVEC
 4.13434350109052 0.00000000000000 0.00000000000000
 -0.00000000000000 4.13434350109052 0.00000000000000
 0.00000000000000 0.00000000000000 4.13434350109052
# Cartesian coordinates in Angstrom.
PRIMCOORD
 4 1
Tm     0.00000000000000     0.00000000000000     0.00000000000000
O     2.06717175054526     0.00000000000000     0.00000000000000
O     0.00000000000000     2.06717175054526     0.00000000000000
O     0.00000000000000     0.00000000000000     2.06717175054526