CRYSTAL
# Primitive lattice vectors in Angstrom
PRIMVEC
 5.27520819346511 0.00000000000000 0.00000000000000
 -0.00000000000000 5.27520819346511 0.00000000000000
 0.00000000000000 0.00000000000000 5.27520819346511
# Cartesian coordinates in Angstrom.
PRIMCOORD
 14 1
U     0.00000000000000     0.00000000000000     0.00000000000000
U     2.63760409673256     2.63760409673256     0.00000000000000
U     2.63760409673256     0.00000000000000     2.63760409673256
U     0.00000000000000     2.63760409673256     2.63760409673256
O     2.63760409673256     0.00000000000000     0.00000000000000
O     0.00000000000000     2.63760409673256     0.00000000000000
O     0.00000000000000     0.00000000000000     2.63760409673256
O     2.63760409673256     2.63760409673256     2.63760409673256
O     3.95640614509883     3.95640614509883     1.31880204836628
O     3.95640614509883     1.31880204836628     3.95640614509883
O     1.31880204836628     3.95640614509883     3.95640614509883
O     3.95640614509883     1.31880204836628     1.31880204836628
O     1.31880204836628     3.95640614509883     1.31880204836628
O     1.31880204836628     1.31880204836628     3.95640614509883