CRYSTAL
# Primitive lattice vectors in Angstrom
PRIMVEC
 3.52482400838529 0.00000000000000 2.03505809008730
 1.17494133612843 3.32323594509118 2.03505809008730
 0.00000000000000 0.00000000000000 4.07011618017461
# Cartesian coordinates in Angstrom.
PRIMCOORD
 3 1
U     1.17494133612843     0.83080898627279     2.03505809008730
U     3.52482400838529     2.49242695881839     6.10517427026191
O     0.00000000000000     0.00000000000000     0.00000000000000