CRYSTAL
# Primitive lattice vectors in Angstrom
PRIMVEC
 5.25317205432518 0.00000000000000 0.00000000000000
 -0.00000000000000 5.25317205432518 0.00000000000000
 0.00000000000000 0.00000000000000 5.25317205432518
# Cartesian coordinates in Angstrom.
PRIMCOORD
 10 1
U     1.31329301358129     1.31329301358129     1.31329301358129
U     3.93987904074388     3.93987904074388     1.31329301358129
U     3.93987904074388     1.31329301358129     3.93987904074388
U     1.31329301358129     3.93987904074388     3.93987904074388
O     2.62658602716259     0.00000000000000     0.00000000000000
O     0.00000000000000     2.62658602716259     0.00000000000000
O     0.00000000000000     0.00000000000000     2.62658602716259
O     2.62658602716259     2.62658602716259     0.00000000000000
O     2.62658602716259     0.00000000000000     2.62658602716259
O     0.00000000000000     2.62658602716259     2.62658602716259