CRYSTAL
# Primitive lattice vectors in Angstrom
PRIMVEC
 3.25501518324561 0.00000000000000 1.87928389226317
 1.08500506108187 3.06885774525086 1.87928389226317
 0.00000000000000 0.00000000000000 3.75856778452633
# Cartesian coordinates in Angstrom.
PRIMCOORD
 3 1
U     0.00000000000000     0.00000000000000     0.00000000000000
O     1.08500506108187     0.76721443631271     1.87928389226317
O     3.25501518324560     2.30164330893814     5.63785167678951