CRYSTAL
# Primitive lattice vectors in Angstrom
PRIMVEC
 2.92576131536472 0.00000000000000 1.68918908301041
 0.97525377178824 2.75843422163689 1.68918908301041
 0.00000000000000 0.00000000000000 3.37837816602082
# Cartesian coordinates in Angstrom.
PRIMCOORD
 2 1
U     0.00000000000000     0.00000000000000     0.00000000000000
O     1.95050754357648     1.37921711081844     3.37837816602082