CRYSTAL
# Primitive lattice vectors in Angstrom
PRIMVEC
 4.12852850358834 0.00000000000000 0.00000000000000
 -0.00000000000000 4.12852850358834 0.00000000000000
 0.00000000000000 0.00000000000000 4.12852850358834
# Cartesian coordinates in Angstrom.
PRIMCOORD
 4 1
U     0.00000000000000     0.00000000000000     0.00000000000000
O     2.06426425179417     0.00000000000000     0.00000000000000
O     0.00000000000000     2.06426425179417     0.00000000000000
O     0.00000000000000     0.00000000000000     2.06426425179417