CRYSTAL
# Primitive lattice vectors in Angstrom
PRIMVEC
 4.60892039802156 0.00000000000000 0.00000000000000
 -0.00000000000000 4.60892039802156 0.00000000000000
 0.00000000000000 0.00000000000000 4.60892039802156
# Cartesian coordinates in Angstrom.
PRIMCOORD
 10 1
V     1.15223009950539     1.15223009950539     1.15223009950539
V     3.45669029851617     3.45669029851617     1.15223009950539
V     3.45669029851617     1.15223009950539     3.45669029851617
V     1.15223009950539     3.45669029851617     3.45669029851617
O     2.30446019901078     0.00000000000000     0.00000000000000
O     0.00000000000000     2.30446019901078     0.00000000000000
O     0.00000000000000     0.00000000000000     2.30446019901078
O     2.30446019901078     2.30446019901078     0.00000000000000
O     2.30446019901078     0.00000000000000     2.30446019901078
O     0.00000000000000     2.30446019901078     2.30446019901078