CRYSTAL
# Primitive lattice vectors in Angstrom
PRIMVEC
 4.86422621697783 0.00000000000000 0.00000000000000
 -0.00000000000000 4.86422621697783 0.00000000000000
 0.00000000000000 0.00000000000000 4.86422621697783
# Cartesian coordinates in Angstrom.
PRIMCOORD
 14 1
V     0.00000000000000     0.00000000000000     0.00000000000000
V     2.43211310848891     2.43211310848891     0.00000000000000
V     2.43211310848891     0.00000000000000     2.43211310848891
V     0.00000000000000     2.43211310848891     2.43211310848891
O     2.43211310848891     0.00000000000000     0.00000000000000
O     0.00000000000000     2.43211310848891     0.00000000000000
O     0.00000000000000     0.00000000000000     2.43211310848891
O     2.43211310848891     2.43211310848891     2.43211310848891
O     3.64816966273337     3.64816966273337     1.21605655424446
O     3.64816966273337     1.21605655424446     3.64816966273337
O     1.21605655424446     3.64816966273337     3.64816966273337
O     3.64816966273337     1.21605655424446     1.21605655424446
O     1.21605655424446     3.64816966273337     1.21605655424446
O     1.21605655424446     1.21605655424446     3.64816966273337