CRYSTAL
# Primitive lattice vectors in Angstrom
PRIMVEC
 3.06073082960259 0.00000000000000 1.76711376838804
 1.02024360986753 2.88568469999829 1.76711376838804
 0.00000000000000 0.00000000000000 3.53422753677609
# Cartesian coordinates in Angstrom.
PRIMCOORD
 3 1
V     1.02024360986753     0.72142117499957     1.76711376838804
V     3.06073082960259     2.16426352499872     5.30134130516413
O     0.00000000000000     0.00000000000000     0.00000000000000