CRYSTAL
# Primitive lattice vectors in Angstrom
PRIMVEC
 2.52611373190796 0.00000000000000 1.45845244312067
 0.84203791063599 2.38164286650743 1.45845244312067
 0.00000000000000 0.00000000000000 2.91690488624134
# Cartesian coordinates in Angstrom.
PRIMCOORD
 2 1
V     0.00000000000000     0.00000000000000     0.00000000000000
O     1.68407582127197     1.19082143325371     2.91690488624134