CRYSTAL
# Primitive lattice vectors in Angstrom
PRIMVEC
 2.86668042119845 0.00000000000000 1.65507871285955
 0.95556014039948 2.70273222043218 1.65507871285955
 0.00000000000000 0.00000000000000 3.31015742571910
# Cartesian coordinates in Angstrom.
PRIMCOORD
 3 1
V     0.00000000000000     0.00000000000000     0.00000000000000
O     0.95556014039948     0.67568305510804     1.65507871285955
O     2.86668042119845     2.02704916532413     4.96523613857866