CRYSTAL
# Primitive lattice vectors in Angstrom
PRIMVEC
 3.65486788592305 0.00000000000000 0.00000000000000
 -0.00000000000000 3.65486788592305 0.00000000000000
 0.00000000000000 0.00000000000000 3.65486788592305
# Cartesian coordinates in Angstrom.
PRIMCOORD
 4 1
V     0.00000000000000     0.00000000000000     0.00000000000000
O     1.82743394296152     0.00000000000000     0.00000000000000
O     0.00000000000000     1.82743394296152     0.00000000000000
O     0.00000000000000     0.00000000000000     1.82743394296152