CRYSTAL
# Primitive lattice vectors in Angstrom
PRIMVEC
 3.33004203719791 0.00000000000000 1.92260066658899
 1.11001401239930 3.13959374151855 1.92260066658899
 0.00000000000000 0.00000000000000 3.84520133317797
# Cartesian coordinates in Angstrom.
PRIMCOORD
 3 1
W     1.11001401239930     0.78489843537963     1.92260066658899
W     3.33004203719791     2.35469530613891     5.76780199976696
O     0.00000000000000     0.00000000000000     0.00000000000000