CRYSTAL
# Primitive lattice vectors in Angstrom
PRIMVEC
 4.95054950746077 0.00000000000000 0.00000000000000
 -0.00000000000000 4.95054950746077 0.00000000000000
 0.00000000000000 0.00000000000000 4.95054950746077
# Cartesian coordinates in Angstrom.
PRIMCOORD
 14 1
W     0.00000000000000     0.00000000000000     0.00000000000000
W     2.47527475373038     2.47527475373038     0.00000000000000
W     2.47527475373038     0.00000000000000     2.47527475373038
W     0.00000000000000     2.47527475373038     2.47527475373038
O     2.47527475373038     0.00000000000000     0.00000000000000
O     0.00000000000000     2.47527475373038     0.00000000000000
O     0.00000000000000     0.00000000000000     2.47527475373038
O     2.47527475373038     2.47527475373038     2.47527475373038
O     3.71291213059558     3.71291213059558     1.23763737686519
O     3.71291213059558     1.23763737686519     3.71291213059558
O     1.23763737686519     3.71291213059558     3.71291213059558
O     3.71291213059558     1.23763737686519     1.23763737686519
O     1.23763737686519     3.71291213059558     1.23763737686519
O     1.23763737686519     1.23763737686519     3.71291213059558