CRYSTAL
# Primitive lattice vectors in Angstrom
PRIMVEC
 4.80043549182805 0.00000000000000 0.00000000000000
 -0.00000000000000 4.80043549182805 0.00000000000000
 0.00000000000000 0.00000000000000 4.80043549182805
# Cartesian coordinates in Angstrom.
PRIMCOORD
 10 1
W     1.20010887295701     1.20010887295701     1.20010887295701
W     3.60032661887104     3.60032661887104     1.20010887295701
W     3.60032661887104     1.20010887295701     3.60032661887104
W     1.20010887295701     3.60032661887104     3.60032661887104
O     2.40021774591403     0.00000000000000     0.00000000000000
O     0.00000000000000     2.40021774591403     0.00000000000000
O     0.00000000000000     0.00000000000000     2.40021774591403
O     2.40021774591403     2.40021774591403     0.00000000000000
O     2.40021774591403     0.00000000000000     2.40021774591403
O     0.00000000000000     2.40021774591403     2.40021774591403