CRYSTAL
# Primitive lattice vectors in Angstrom
PRIMVEC
 2.99238282457441 0.00000000000000 1.72765302928645
 0.99746094152480 2.82124558288363 1.72765302928645
 0.00000000000000 0.00000000000000 3.45530605857289
# Cartesian coordinates in Angstrom.
PRIMCOORD
 3 1
W     0.00000000000000     0.00000000000000     0.00000000000000
O     0.99746094152480     0.70531139572091     1.72765302928645
O     2.99238282457441     2.11593418716272     5.18295908785935