CRYSTAL
# Primitive lattice vectors in Angstrom
PRIMVEC
 3.79966601673449 0.00000000000000 0.00000000000000
 -0.00000000000000 3.79966601673449 0.00000000000000
 0.00000000000000 0.00000000000000 3.79966601673449
# Cartesian coordinates in Angstrom.
PRIMCOORD
 4 1
W     0.00000000000000     0.00000000000000     0.00000000000000
O     1.89983300836724     0.00000000000000     0.00000000000000
O     0.00000000000000     1.89983300836724     0.00000000000000
O     0.00000000000000     0.00000000000000     1.89983300836724