CRYSTAL
# Primitive lattice vectors in Angstrom
PRIMVEC
 2.69747691398618 0.00000000000000 1.55738902242272
 0.89915897132873 2.54320562396506 1.55738902242272
 0.00000000000000 0.00000000000000 3.11477804484544
# Cartesian coordinates in Angstrom.
PRIMCOORD
 2 1
W     0.00000000000000     0.00000000000000     0.00000000000000
O     1.79831794265746     1.27160281198252     3.11477804484544