CRYSTAL
# Primitive lattice vectors in Angstrom
PRIMVEC
 4.66381105502826 0.00000000000000 2.69265256807012
 1.55460368500941 4.39708323091102 2.69265256807012
 0.00000000000000 0.00000000000000 5.38530513614024
# Cartesian coordinates in Angstrom.
PRIMCOORD
 3 1
Xe     1.55460368500941     1.09927080772775     2.69265256807012
Xe     4.66381105502826     3.29781242318327     8.07795770421036
O     0.00000000000000     0.00000000000000     0.00000000000000