CRYSTAL
# Primitive lattice vectors in Angstrom
PRIMVEC
 5.69523732303337 0.00000000000000 0.00000000000000
 -0.00000000000000 5.69523732303337 0.00000000000000
 0.00000000000000 0.00000000000000 5.69523732303337
# Cartesian coordinates in Angstrom.
PRIMCOORD
 10 1
Xe     1.42380933075834     1.42380933075834     1.42380933075834
Xe     4.27142799227503     4.27142799227503     1.42380933075834
Xe     4.27142799227503     1.42380933075834     4.27142799227503
Xe     1.42380933075834     4.27142799227503     4.27142799227503
O     2.84761866151669     0.00000000000000     0.00000000000000
O     0.00000000000000     2.84761866151669     0.00000000000000
O     0.00000000000000     0.00000000000000     2.84761866151669
O     2.84761866151669     2.84761866151669     0.00000000000000
O     2.84761866151669     0.00000000000000     2.84761866151669
O     0.00000000000000     2.84761866151669     2.84761866151669