CRYSTAL
# Primitive lattice vectors in Angstrom
PRIMVEC
 3.36333307008246 0.00000000000000 1.94182125338648
 1.12111102336082 3.17098082832570 1.94182125338648
 0.00000000000000 0.00000000000000 3.88364250677295
# Cartesian coordinates in Angstrom.
PRIMCOORD
 2 1
Xe     0.00000000000000     0.00000000000000     0.00000000000000
O     2.24222204672164     1.58549041416285     3.88364250677295