CRYSTAL
# Primitive lattice vectors in Angstrom
PRIMVEC
 5.54063143210313 0.00000000000000 0.00000000000000
 -0.00000000000000 5.54063143210313 0.00000000000000
 0.00000000000000 0.00000000000000 5.54063143210313
# Cartesian coordinates in Angstrom.
PRIMCOORD
 14 1
Xe     0.00000000000000     0.00000000000000     0.00000000000000
Xe     2.77031571605157     2.77031571605157     0.00000000000000
Xe     2.77031571605157     0.00000000000000     2.77031571605157
Xe     0.00000000000000     2.77031571605157     2.77031571605157
O     2.77031571605157     0.00000000000000     0.00000000000000
O     0.00000000000000     2.77031571605157     0.00000000000000
O     0.00000000000000     0.00000000000000     2.77031571605157
O     2.77031571605157     2.77031571605157     2.77031571605157
O     4.15547357407735     4.15547357407735     1.38515785802578
O     4.15547357407735     1.38515785802578     4.15547357407735
O     1.38515785802578     4.15547357407735     4.15547357407735
O     4.15547357407735     1.38515785802578     1.38515785802578
O     1.38515785802578     4.15547357407735     1.38515785802578
O     1.38515785802578     1.38515785802578     4.15547357407735