CRYSTAL
# Primitive lattice vectors in Angstrom
PRIMVEC
 3.44211264357448 0.00000000000000 1.98730466134874
 1.14737088119149 3.24525492250596 1.98730466134874
 0.00000000000000 0.00000000000000 3.97460932269747
# Cartesian coordinates in Angstrom.
PRIMCOORD
 3 1
Xe     0.00000000000000     0.00000000000000     0.00000000000000
O     1.14737088119149     0.81131373062649     1.98730466134874
O     3.44211264357448     2.43394119187947     5.96191398404622