CRYSTAL
# Primitive lattice vectors in Angstrom
PRIMVEC
 5.28229030539582 0.00000000000000 0.00000000000000
 -0.00000000000000 5.28229030539582 0.00000000000000
 0.00000000000000 0.00000000000000 5.28229030539582
# Cartesian coordinates in Angstrom.
PRIMCOORD
 10 1
Y     1.32057257634895     1.32057257634895     1.32057257634895
Y     3.96171772904687     3.96171772904687     1.32057257634895
Y     3.96171772904687     1.32057257634895     3.96171772904687
Y     1.32057257634895     3.96171772904687     3.96171772904687
O     2.64114515269791     0.00000000000000     0.00000000000000
O     0.00000000000000     2.64114515269791     0.00000000000000
O     0.00000000000000     0.00000000000000     2.64114515269791
O     2.64114515269791     2.64114515269791     0.00000000000000
O     2.64114515269791     0.00000000000000     2.64114515269791
O     0.00000000000000     2.64114515269791     2.64114515269791