CRYSTAL
# Primitive lattice vectors in Angstrom
PRIMVEC
 3.65087875053261 0.00000000000000 2.10783582939869
 1.21695958351087 3.44208149572197 2.10783582939869
 0.00000000000000 0.00000000000000 4.21567165879738
# Cartesian coordinates in Angstrom.
PRIMCOORD
 3 1
Y     1.21695958351087     0.86052037393049     2.10783582939869
Y     3.65087875053261     2.58156112179148     6.32350748819607
O     0.00000000000000     0.00000000000000     0.00000000000000