CRYSTAL
# Primitive lattice vectors in Angstrom
PRIMVEC
 5.40457924584797 0.00000000000000 0.00000000000000
 -0.00000000000000 5.40457924584797 0.00000000000000
 0.00000000000000 0.00000000000000 5.40457924584797
# Cartesian coordinates in Angstrom.
PRIMCOORD
 14 1
Y     0.00000000000000     0.00000000000000     0.00000000000000
Y     2.70228962292398     2.70228962292398     0.00000000000000
Y     2.70228962292398     0.00000000000000     2.70228962292398
Y     0.00000000000000     2.70228962292398     2.70228962292398
O     2.70228962292398     0.00000000000000     0.00000000000000
O     0.00000000000000     2.70228962292398     0.00000000000000
O     0.00000000000000     0.00000000000000     2.70228962292398
O     2.70228962292398     2.70228962292398     2.70228962292398
O     4.05343443438598     4.05343443438598     1.35114481146199
O     4.05343443438598     1.35114481146199     4.05343443438598
O     1.35114481146199     4.05343443438598     4.05343443438598
O     4.05343443438598     1.35114481146199     1.35114481146199
O     1.35114481146199     4.05343443438598     1.35114481146199
O     1.35114481146199     1.35114481146199     4.05343443438598