CRYSTAL
# Primitive lattice vectors in Angstrom
PRIMVEC
 2.91349579971510 0.00000000000000 1.68210758424835
 0.97116526657170 2.74687018258276 1.68210758424835
 0.00000000000000 0.00000000000000 3.36421516849671
# Cartesian coordinates in Angstrom.
PRIMCOORD
 2 1
Y     0.00000000000000     0.00000000000000     0.00000000000000
O     1.94233053314340     1.37343509129138     3.36421516849671