CRYSTAL
# Primitive lattice vectors in Angstrom
PRIMVEC
 4.39954606265643 0.00000000000000 0.00000000000000
 -0.00000000000000 4.39954606265643 0.00000000000000
 0.00000000000000 0.00000000000000 4.39954606265643
# Cartesian coordinates in Angstrom.
PRIMCOORD
 4 1
Y     0.00000000000000     0.00000000000000     0.00000000000000
O     2.19977303132821     0.00000000000000     0.00000000000000
O     0.00000000000000     2.19977303132821     0.00000000000000
O     0.00000000000000     0.00000000000000     2.19977303132821