CRYSTAL
# Primitive lattice vectors in Angstrom
PRIMVEC
 3.28702319246612 0.00000000000000 1.89776372500285
 1.09567439748870 3.09903518574700 1.89776372500285
 0.00000000000000 0.00000000000000 3.79552745000571
# Cartesian coordinates in Angstrom.
PRIMCOORD
 3 1
Y     0.00000000000000     0.00000000000000     0.00000000000000
O     1.09567439748870     0.77475879643675     1.89776372500285
O     3.28702319246612     2.32427638931025     5.69329117500857