CRYSTAL
# Primitive lattice vectors in Angstrom
PRIMVEC
 5.20654865025999 0.00000000000000 0.00000000000000
 -0.00000000000000 5.20654865025999 0.00000000000000
 0.00000000000000 0.00000000000000 5.20654865025999
# Cartesian coordinates in Angstrom.
PRIMCOORD
 10 1
Yb     1.30163716256499     1.30163716256499     1.30163716256499
Yb     3.90491148769499     3.90491148769499     1.30163716256499
Yb     3.90491148769499     1.30163716256499     3.90491148769499
Yb     1.30163716256499     3.90491148769499     3.90491148769499
O     2.60327432513000     0.00000000000000     0.00000000000000
O     0.00000000000000     2.60327432513000     0.00000000000000
O     0.00000000000000     0.00000000000000     2.60327432513000
O     2.60327432513000     2.60327432513000     0.00000000000000
O     2.60327432513000     0.00000000000000     2.60327432513000
O     0.00000000000000     2.60327432513000     2.60327432513000