CRYSTAL
# Primitive lattice vectors in Angstrom
PRIMVEC
 4.16026145449852 0.00000000000000 0.00000000000000
 -0.00000000000000 4.16026145449852 0.00000000000000
 0.00000000000000 0.00000000000000 4.16026145449852
# Cartesian coordinates in Angstrom.
PRIMCOORD
 4 1
Yb     0.00000000000000     0.00000000000000     0.00000000000000
O     2.08013072724926     0.00000000000000     0.00000000000000
O     0.00000000000000     2.08013072724926     0.00000000000000
O     0.00000000000000     0.00000000000000     2.08013072724926