CRYSTAL
# Primitive lattice vectors in Angstrom
PRIMVEC
 3.19712815038408 0.00000000000000 1.84586279825798
 1.06570938346136 3.01428132727865 1.84586279825798
 0.00000000000000 0.00000000000000 3.69172559651595
# Cartesian coordinates in Angstrom.
PRIMCOORD
 3 1
Yb     0.00000000000000     0.00000000000000     0.00000000000000
O     1.06570938346136     0.75357033181966     1.84586279825798
O     3.19712815038408     2.26071099545899     5.53758839477394