CRYSTAL
# Primitive lattice vectors in Angstrom
PRIMVEC
 5.31560600093174 0.00000000000000 0.00000000000000
 -0.00000000000000 5.31560600093174 0.00000000000000
 0.00000000000000 0.00000000000000 5.31560600093174
# Cartesian coordinates in Angstrom.
PRIMCOORD
 14 1
Yb     0.00000000000000     0.00000000000000     0.00000000000000
Yb     2.65780300046587     2.65780300046587     0.00000000000000
Yb     2.65780300046587     0.00000000000000     2.65780300046587
Yb     0.00000000000000     2.65780300046587     2.65780300046587
O     2.65780300046587     0.00000000000000     0.00000000000000
O     0.00000000000000     2.65780300046587     0.00000000000000
O     0.00000000000000     0.00000000000000     2.65780300046587
O     2.65780300046587     2.65780300046587     2.65780300046587
O     3.98670450069881     3.98670450069881     1.32890150023294
O     3.98670450069881     1.32890150023294     3.98670450069881
O     1.32890150023294     3.98670450069881     3.98670450069881
O     3.98670450069881     1.32890150023294     1.32890150023294
O     1.32890150023294     3.98670450069881     1.32890150023294
O     1.32890150023294     1.32890150023294     3.98670450069881