CRYSTAL
# Primitive lattice vectors in Angstrom
PRIMVEC
 3.64150895676700 0.00000000000000 2.10242617644586
 1.21383631892233 3.43324756944200 2.10242617644586
 0.00000000000000 0.00000000000000 4.20485235289173
# Cartesian coordinates in Angstrom.
PRIMCOORD
 3 1
Yb     1.21383631892233     0.85831189236050     2.10242617644586
Yb     3.64150895676700     2.57493567708150     6.30727852933759
O     0.00000000000000     0.00000000000000     0.00000000000000