CRYSTAL
# Primitive lattice vectors in Angstrom
PRIMVEC
 2.89487367873041 0.00000000000000 1.67135609768496
 0.96495789291014 2.72931307854496 1.67135609768496
 0.00000000000000 0.00000000000000 3.34271219536993
# Cartesian coordinates in Angstrom.
PRIMCOORD
 2 1
Yb     0.00000000000000     0.00000000000000     0.00000000000000
O     1.92991578582028     1.36465653927248     3.34271219536993