CRYSTAL
# Primitive lattice vectors in Angstrom
PRIMVEC
 3.28029120375199 0.00000000000000 1.89387700950658
 1.09343040125066 3.09268820591949 1.89387700950658
 0.00000000000000 0.00000000000000 3.78775401901315
# Cartesian coordinates in Angstrom.
PRIMCOORD
 3 1
Zn     1.09343040125066     0.77317205147987     1.89387700950658
Zn     3.28029120375199     2.31951615443962     5.68163102851973
O     0.00000000000000     0.00000000000000     0.00000000000000