CRYSTAL
# Primitive lattice vectors in Angstrom
PRIMVEC
 4.76119438252409 0.00000000000000 0.00000000000000
 -0.00000000000000 4.76119438252409 0.00000000000000
 0.00000000000000 0.00000000000000 4.76119438252409
# Cartesian coordinates in Angstrom.
PRIMCOORD
 10 1
Zn     1.19029859563102     1.19029859563102     1.19029859563102
Zn     3.57089578689307     3.57089578689307     1.19029859563102
Zn     3.57089578689307     1.19029859563102     3.57089578689307
Zn     1.19029859563102     3.57089578689307     3.57089578689307
O     2.38059719126205     0.00000000000000     0.00000000000000
O     0.00000000000000     2.38059719126205     0.00000000000000
O     0.00000000000000     0.00000000000000     2.38059719126205
O     2.38059719126205     2.38059719126205     0.00000000000000
O     2.38059719126205     0.00000000000000     2.38059719126205
O     0.00000000000000     2.38059719126205     2.38059719126205