CRYSTAL
# Primitive lattice vectors in Angstrom
PRIMVEC
 5.06269310616498 0.00000000000000 0.00000000000000
 -0.00000000000000 5.06269310616498 0.00000000000000
 0.00000000000000 0.00000000000000 5.06269310616498
# Cartesian coordinates in Angstrom.
PRIMCOORD
 14 1
Zn     0.00000000000000     0.00000000000000     0.00000000000000
Zn     2.53134655308249     2.53134655308249     0.00000000000000
Zn     2.53134655308249     0.00000000000000     2.53134655308249
Zn     0.00000000000000     2.53134655308249     2.53134655308249
O     2.53134655308249     0.00000000000000     0.00000000000000
O     0.00000000000000     2.53134655308249     0.00000000000000
O     0.00000000000000     0.00000000000000     2.53134655308249
O     2.53134655308249     2.53134655308249     2.53134655308249
O     3.79701982962374     3.79701982962374     1.26567327654125
O     3.79701982962374     1.26567327654125     3.79701982962374
O     1.26567327654125     3.79701982962374     3.79701982962374
O     3.79701982962374     1.26567327654125     1.26567327654125
O     1.26567327654125     3.79701982962374     1.26567327654125
O     1.26567327654125     1.26567327654125     3.79701982962374