CRYSTAL
# Primitive lattice vectors in Angstrom
PRIMVEC
 3.77200424819163 0.00000000000000 0.00000000000000
 -0.00000000000000 3.77200424819163 0.00000000000000
 0.00000000000000 0.00000000000000 3.77200424819163
# Cartesian coordinates in Angstrom.
PRIMCOORD
 4 1
Zn     0.00000000000000     0.00000000000000     0.00000000000000
O     1.88600212409581     0.00000000000000     0.00000000000000
O     0.00000000000000     1.88600212409581     0.00000000000000
O     0.00000000000000     0.00000000000000     1.88600212409581