CRYSTAL
# Primitive lattice vectors in Angstrom
PRIMVEC
 2.61090214046134 0.00000000000000 1.50740505362312
 0.87030071348711 2.46158214471292 1.50740505362312
 0.00000000000000 0.00000000000000 3.01481010724625
# Cartesian coordinates in Angstrom.
PRIMCOORD
 2 1
Zn     0.00000000000000     0.00000000000000     0.00000000000000
O     1.74060142697423     1.23079107235645     3.01481010724625