CRYSTAL
# Primitive lattice vectors in Angstrom
PRIMVEC
 2.98277236566108 0.00000000000000 1.72210442824580
 0.99425745522036 2.81218475532639 1.72210442824580
 0.00000000000000 0.00000000000000 3.44420885649160
# Cartesian coordinates in Angstrom.
PRIMCOORD
 3 1
Zn     0.00000000000000     0.00000000000000     0.00000000000000
O     0.99425745522036     0.70304618883160     1.72210442824580
O     2.98277236566108     2.10913856649479     5.16631328473740