CRYSTAL
# Primitive lattice vectors in Angstrom
PRIMVEC
 5.17795514199354 0.00000000000000 0.00000000000000
 -0.00000000000000 5.17795514199354 0.00000000000000
 0.00000000000000 0.00000000000000 5.17795514199354
# Cartesian coordinates in Angstrom.
PRIMCOORD
 14 1
Zr     0.00000000000000     0.00000000000000     0.00000000000000
Zr     2.58897757099677     2.58897757099677     0.00000000000000
Zr     2.58897757099677     0.00000000000000     2.58897757099677
Zr     0.00000000000000     2.58897757099677     2.58897757099677
O     2.58897757099677     0.00000000000000     0.00000000000000
O     0.00000000000000     2.58897757099677     0.00000000000000
O     0.00000000000000     0.00000000000000     2.58897757099677
O     2.58897757099677     2.58897757099677     2.58897757099677
O     3.88346635649515     3.88346635649515     1.29448878549838
O     3.88346635649515     1.29448878549838     3.88346635649515
O     1.29448878549838     3.88346635649515     3.88346635649515
O     3.88346635649515     1.29448878549838     1.29448878549838
O     1.29448878549838     3.88346635649515     1.29448878549838
O     1.29448878549838     1.29448878549838     3.88346635649515