CRYSTAL
# Primitive lattice vectors in Angstrom
PRIMVEC
 2.77905820985364 0.00000000000000 1.60449000555264
 0.92635273661788 2.62012120733288 1.60449000555264
 0.00000000000000 0.00000000000000 3.20898001110527
# Cartesian coordinates in Angstrom.
PRIMCOORD
 2 1
Zr     0.00000000000000     0.00000000000000     0.00000000000000
O     1.85270547323576     1.31006060366643     3.20898001110527