CRYSTAL
# Primitive lattice vectors in Angstrom
PRIMVEC
 3.48269155968660 0.00000000000000 2.01073290948950
 1.16089718656220 3.28351309151406 2.01073290948950
 0.00000000000000 0.00000000000000 4.02146581897900
# Cartesian coordinates in Angstrom.
PRIMCOORD
 3 1
Zr     1.16089718656220     0.82087827287851     2.01073290948950
Zr     3.48269155968660     2.46263481863555     6.03219872846849
O     0.00000000000000     0.00000000000000     0.00000000000000