CRYSTAL
# Primitive lattice vectors in Angstrom
PRIMVEC
 3.10105770606824 0.00000000000000 1.79039650137106
 1.03368590202275 2.92370524374888 1.79039650137106
 0.00000000000000 0.00000000000000 3.58079300274213
# Cartesian coordinates in Angstrom.
PRIMCOORD
 3 1
Zr     0.00000000000000     0.00000000000000     0.00000000000000
O     1.03368590202275     0.73092631093722     1.79039650137106
O     3.10105770606824     2.19277893281166     5.37118950411320