CRYSTAL
# Primitive lattice vectors in Angstrom
PRIMVEC
 5.01671644382743 0.00000000000000 0.00000000000000
 -0.00000000000000 5.01671644382743 0.00000000000000
 0.00000000000000 0.00000000000000 5.01671644382743
# Cartesian coordinates in Angstrom.
PRIMCOORD
 10 1
Zr     1.25417911095686     1.25417911095686     1.25417911095686
Zr     3.76253733287057     3.76253733287057     1.25417911095686
Zr     3.76253733287057     1.25417911095686     3.76253733287057
Zr     1.25417911095686     3.76253733287057     3.76253733287057
O     2.50835822191372     0.00000000000000     0.00000000000000
O     0.00000000000000     2.50835822191372     0.00000000000000
O     0.00000000000000     0.00000000000000     2.50835822191372
O     2.50835822191372     2.50835822191372     0.00000000000000
O     2.50835822191372     0.00000000000000     2.50835822191372
O     0.00000000000000     2.50835822191372     2.50835822191372